@<TRIPOS>MOLECULE
ZINC00171204_0
   35    37     0     0     0
SMALL
USER_CHARGES

@<TRIPOS>ATOM
      1 C1         -0.1722    4.0984    7.1400 C.ar      1 <0>        -0.1284
      2 C2          0.0274    3.6912    5.8253 C.ar      1 <0>        -0.1217
      3 C3         -0.9252    5.2383    7.3987 C.ar      1 <0>        -0.1222
      4 C4         -6.3577    8.8862    2.3561 C.ar      1 <0>        -0.0908
      5 C5         -6.7216    6.7697    3.4655 C.ar      1 <0>        -0.0628
      6 C6         -0.5192    4.4274    4.7687 C.ar      1 <0>        -0.1187
      7 C7         -1.4737    5.9725    6.3425 C.ar      1 <0>        -0.1256
      8 C8         -7.5476    9.3752    2.8966 C.ar      1 <0>        -0.1555
      9 C9         -7.9121    7.2567    4.0081 C.ar      1 <0>        -0.2092
     10 C10        -5.9320    7.5793    2.6363 C.ar      1 <0>        -0.1329
     11 C11        -1.2706    5.5876    5.0065 C.ar      1 <0>         0.0468
     12 C12        -8.3163    8.5575    3.7191 C.ar      1 <0>         0.1332
     13 C13        -3.0832    6.9778    4.0509 C.2       1 <0>         0.6925
     14 C14        -1.3006    6.5809    2.6760 C.2       1 <0>         0.5548
     15 C15        -3.3831    7.6386    2.7121 C.3       1 <0>         0.0229
     16 C16        -4.6423    7.0546    2.0525 C.3       1 <0>        -0.0301
     17 N1         -2.2224    7.3330    1.9498 N.pl3     1 <0>        -0.5503
     18 N2         -1.8441    6.3442    3.9396 N.am      1 <0>        -0.3891
     19 O1         -3.8532    7.0023    5.0019 O.2       1 <0>        -0.5506
     20 O2         -9.4754    9.0661    4.2332 O.3       1 <0>        -0.4955
     21 S1          0.1858    6.2119    2.0157 S.2       1 <0>        -0.4561
     22 H1          0.2522    3.5263    7.9596 H         1 <0>         0.1358
     23 H2          0.5994    2.7911    5.6174 H         1 <0>         0.1374
     24 H3         -1.0847    5.5630    8.4232 H         1 <0>         0.1364
     25 H4         -5.7637    9.5310    1.7130 H         1 <0>         0.1303
     26 H5         -6.4109    5.7542    3.6994 H         1 <0>         0.1390
     27 H6         -0.3838    4.0335    3.7663 H         1 <0>         0.1602
     28 H7         -2.0292    6.8728    6.5920 H         1 <0>         0.1522
     29 H8         -7.8671   10.3890    2.6731 H         1 <0>         0.1528
     30 H9         -8.5083    6.6153    4.6503 H         1 <0>         0.1382
     31 H10        -3.5002    8.7216    2.8549 H         1 <0>         0.0981
     32 H11        -4.6418    7.2875    0.9787 H         1 <0>         0.0615
     33 H12        -4.6280    5.9579    2.1125 H         1 <0>         0.0645
     34 H13        -2.0412    7.6772    1.0121 H         1 <0>         0.3613
     35 H14        -9.8950    8.3837    4.7843 H         1 <0>         0.4215
@<TRIPOS>BOND
     1    1    2 ar
     2    1    3 ar
     3    2    6 ar
     4    3    7 ar
     5    4    8 ar
     6    4   10 ar
     7    5    9 ar
     8    5   10 ar
     9    6   11 ar
    10    7   11 ar
    11    8   12 ar
    12    9   12 ar
    13   10   16 1
    14   11   18 1
    15   12   20 1
    16   13   15 1
    17   13   18 am
    18   13   19 2
    19   14   17 1
    20   14   18 1
    21   14   21 2
    22   15   16 1
    23   15   17 1
    24    1   22 1
    25    2   23 1
    26    3   24 1
    27    4   25 1
    28    5   26 1
    29    6   27 1
    30    7   28 1
    31    8   29 1
    32    9   30 1
    33   15   31 1
    34   16   32 1
    35   16   33 1
    36   17   34 1
    37   20   35 1
@<TRIPOS>MOLECULE
ZINC00171204_1
   35    37     0     0     0
SMALL
USER_CHARGES

mmff94s_NoEstat = 73.87
@<TRIPOS>ATOM
      1 C1          1.8954   -4.5997   -5.8368 C.ar      1 <0>        -0.1284
      2 C2          0.6579   -4.4095   -5.2218 C.ar      1 <0>        -0.1217
      3 C3          3.0703   -4.3012   -5.1468 C.ar      1 <0>        -0.1222
      4 C4          0.3380    0.1235    2.5435 C.ar      1 <0>        -0.0908
      5 C5          2.6779    0.0830    1.9435 C.ar      1 <0>        -0.0628
      6 C6          0.5954   -3.9207   -3.9169 C.ar      1 <0>        -0.1187
      7 C7          3.0078   -3.8123   -3.8419 C.ar      1 <0>        -0.1256
      8 C8          0.6786    0.4837    3.8474 C.ar      1 <0>        -0.1555
      9 C9          3.0185    0.4431    3.2473 C.ar      1 <0>        -0.2092
     10 C10         1.3418   -0.0723    1.6077 C.ar      1 <0>        -0.1329
     11 C11         1.7702   -3.6215   -3.2253 C.ar      1 <0>         0.0468
     12 C12         2.0189    0.6435    4.1993 C.ar      1 <0>         0.1332
     13 C13         0.6406   -2.3554   -1.4243 C.2       1 <0>         0.6925
     14 C14         2.6358   -3.2948   -0.8691 C.2       1 <0>         0.5548
     15 C15         0.9025   -1.9642    0.0216 C.3       1 <0>         0.0229
     16 C16         0.9734   -0.4611    0.1974 C.3       1 <0>        -0.0301
     17 N1          2.1705   -2.5964    0.2419 N.pl3     1 <0>        -0.5503
     18 N2          1.7058   -3.1213   -1.8897 N.am      1 <0>        -0.3891
     19 O1         -0.3561   -1.9789   -2.0303 O.2       1 <0>        -0.5506
     20 O2          2.3511    0.9965    5.4711 O.3       1 <0>        -0.4955
     21 S1          4.0296   -4.2074   -0.7757 S.2       1 <0>        -0.4561
     22 H1          1.9441   -4.9801   -6.8530 H         1 <0>         0.1358
     23 H2         -0.2571   -4.6419   -5.7589 H         1 <0>         0.1374
     24 H3          4.0336   -4.4494   -5.6259 H         1 <0>         0.1364
     25 H4         -0.7088    0.0012    2.2789 H         1 <0>         0.1303
     26 H5          3.4635   -0.0707    1.2082 H         1 <0>         0.1390
     27 H6         -0.3749   -3.7762   -3.4483 H         1 <0>         0.1602
     28 H7          3.9303   -3.5830   -3.3139 H         1 <0>         0.1522
     29 H8         -0.1046    0.6384    4.5842 H         1 <0>         0.1528
     30 H9          4.0645    0.5670    3.5151 H         1 <0>         0.1382
     31 H10         0.1581   -2.4228    0.6780 H         1 <0>         0.0981
     32 H11         0.0090   -0.0052   -0.0666 H         1 <0>         0.0615
     33 H12         1.7058   -0.0342   -0.5018 H         1 <0>         0.0645
     34 H13         2.6633   -2.6374    1.1287 H         1 <0>         0.3613
     35 H14         1.9878    0.3563    6.1036 H         1 <0>         0.4215
@<TRIPOS>BOND
     1    1    2 ar
     2    1    3 ar
     3    2    6 ar
     4    3    7 ar
     5    4    8 ar
     6    4   10 ar
     7    5    9 ar
     8    5   10 ar
     9    6   11 ar
    10    7   11 ar
    11    8   12 ar
    12    9   12 ar
    13   10   16 1
    14   11   18 1
    15   12   20 1
    16   13   15 1
    17   13   18 am
    18   13   19 2
    19   14   17 1
    20   14   18 1
    21   14   21 2
    22   15   16 1
    23   15   17 1
    24    1   22 1
    25    2   23 1
    26    3   24 1
    27    4   25 1
    28    5   26 1
    29    6   27 1
    30    7   28 1
    31    8   29 1
    32    9   30 1
    33   15   31 1
    34   16   32 1
    35   16   33 1
    36   17   34 1
    37   20   35 1
@<TRIPOS>MOLECULE
ZINC00171204_2
   35    37     0     0     0
SMALL
USER_CHARGES

mmff94s_NoEstat = 74.44
@<TRIPOS>ATOM
      1 C1          1.8954   -4.5997   -5.8368 C.ar      1 <0>        -0.1284
      2 C2          0.6579   -4.4095   -5.2218 C.ar      1 <0>        -0.1217
      3 C3          3.0703   -4.3012   -5.1468 C.ar      1 <0>        -0.1222
      4 C4          3.3058    0.3119   -0.2629 C.ar      1 <0>        -0.0908
      5 C5          1.6243    0.5909   -1.9751 C.ar      1 <0>        -0.0628
      6 C6          0.5954   -3.9207   -3.9169 C.ar      1 <0>        -0.1187
      7 C7          3.0078   -3.8123   -3.8419 C.ar      1 <0>        -0.1256
      8 C8          4.2564    0.8939   -1.1016 C.ar      1 <0>        -0.1555
      9 C9          2.5749    1.1729   -2.8138 C.ar      1 <0>        -0.2092
     10 C10         2.0015    0.1677   -0.7100 C.ar      1 <0>        -0.1329
     11 C11         1.7702   -3.6215   -3.2253 C.ar      1 <0>         0.0468
     12 C12         3.8909    1.3244   -2.3771 C.ar      1 <0>         0.1332
     13 C13         0.6406   -2.3554   -1.4243 C.2       1 <0>         0.6925
     14 C14         2.6358   -3.2948   -0.8691 C.2       1 <0>         0.5548
     15 C15         0.9025   -1.9642    0.0216 C.3       1 <0>         0.0229
     16 C16         0.9734   -0.4611    0.1974 C.3       1 <0>        -0.0301
     17 N1          2.1705   -2.5964    0.2419 N.pl3     1 <0>        -0.5503
     18 N2          1.7058   -3.1213   -1.8897 N.am      1 <0>        -0.3891
     19 O1         -0.3561   -1.9789   -2.0303 O.2       1 <0>        -0.5506
     20 O2          4.8181    1.8937   -3.1949 O.3       1 <0>        -0.4955
     21 S1          4.0296   -4.2074   -0.7757 S.2       1 <0>        -0.4561
     22 H1          1.9441   -4.9801   -6.8530 H         1 <0>         0.1358
     23 H2         -0.2571   -4.6419   -5.7589 H         1 <0>         0.1374
     24 H3          4.0336   -4.4494   -5.6259 H         1 <0>         0.1364
     25 H4          3.6000   -0.0205    0.7289 H         1 <0>         0.1303
     26 H5          0.6011    0.4771   -2.3237 H         1 <0>         0.1390
     27 H6         -0.3749   -3.7762   -3.4483 H         1 <0>         0.1602
     28 H7          3.9303   -3.5830   -3.3139 H         1 <0>         0.1522
     29 H8          5.2798    1.0092   -0.7556 H         1 <0>         0.1528
     30 H9          2.2838    1.5071   -3.8062 H         1 <0>         0.1382
     31 H10         0.1581   -2.4228    0.6780 H         1 <0>         0.0981
     32 H11         1.2093   -0.2148    1.2420 H         1 <0>         0.0615
     33 H12        -0.0102   -0.0121    0.0005 H         1 <0>         0.0645
     34 H13         2.6633   -2.6374    1.1287 H         1 <0>         0.3613
     35 H14         5.5670    1.2904   -3.3256 H         1 <0>         0.4215
@<TRIPOS>BOND
     1    1    2 ar
     2    1    3 ar
     3    2    6 ar
     4    3    7 ar
     5    4    8 ar
     6    4   10 ar
     7    5    9 ar
     8    5   10 ar
     9    6   11 ar
    10    7   11 ar
    11    8   12 ar
    12    9   12 ar
    13   10   16 1
    14   11   18 1
    15   12   20 1
    16   13   15 1
    17   13   18 am
    18   13   19 2
    19   14   17 1
    20   14   18 1
    21   14   21 2
    22   15   16 1
    23   15   17 1
    24    1   22 1
    25    2   23 1
    26    3   24 1
    27    4   25 1
    28    5   26 1
    29    6   27 1
    30    7   28 1
    31    8   29 1
    32    9   30 1
    33   15   31 1
    34   16   32 1
    35   16   33 1
    36   17   34 1
    37   20   35 1
@<TRIPOS>MOLECULE
ZINC00171204_3
   35    37     0     0     0
SMALL
USER_CHARGES

mmff94s_NoEstat = 75.25
@<TRIPOS>ATOM
      1 C1          1.8954   -4.5997   -5.8368 C.ar      1 <0>        -0.1284
      2 C2          0.6579   -4.4095   -5.2218 C.ar      1 <0>        -0.1217
      3 C3          3.0703   -4.3012   -5.1468 C.ar      1 <0>        -0.1222
      4 C4         -1.0967    0.5758   -0.7457 C.ar      1 <0>        -0.0908
      5 C5         -0.9214    0.2873    1.6466 C.ar      1 <0>        -0.0628
      6 C6          0.5954   -3.9207   -3.9169 C.ar      1 <0>        -0.1187
      7 C7          3.0078   -3.8123   -3.8419 C.ar      1 <0>        -0.1256
      8 C8         -2.3599    1.1451   -0.5845 C.ar      1 <0>        -0.1555
      9 C9         -2.1845    0.8566    1.8078 C.ar      1 <0>        -0.2092
     10 C10        -0.3931    0.1540    0.3718 C.ar      1 <0>        -0.1329
     11 C11         1.7702   -3.6215   -3.2253 C.ar      1 <0>         0.0468
     12 C12        -2.9038    1.2855    0.6923 C.ar      1 <0>         0.1332
     13 C13         0.6406   -2.3554   -1.4243 C.2       1 <0>         0.6925
     14 C14         2.6358   -3.2948   -0.8691 C.2       1 <0>         0.5548
     15 C15         0.9025   -1.9642    0.0216 C.3       1 <0>         0.0229
     16 C16         0.9734   -0.4611    0.1974 C.3       1 <0>        -0.0301
     17 N1          2.1705   -2.5964    0.2419 N.pl3     1 <0>        -0.5503
     18 N2          1.7058   -3.1213   -1.8897 N.am      1 <0>        -0.3891
     19 O1         -0.3561   -1.9789   -2.0303 O.2       1 <0>        -0.5506
     20 O2         -4.1357    1.8425    0.8498 O.3       1 <0>        -0.4955
     21 S1          4.0296   -4.2074   -0.7757 S.2       1 <0>        -0.4561
     22 H1          1.9441   -4.9801   -6.8530 H         1 <0>         0.1358
     23 H2         -0.2571   -4.6419   -5.7589 H         1 <0>         0.1374
     24 H3          4.0336   -4.4494   -5.6259 H         1 <0>         0.1364
     25 H4         -0.6813    0.4704   -1.7443 H         1 <0>         0.1303
     26 H5         -0.3680   -0.0438    2.5215 H         1 <0>         0.1390
     27 H6         -0.3749   -3.7762   -3.4483 H         1 <0>         0.1602
     28 H7          3.9303   -3.5830   -3.3139 H         1 <0>         0.1522
     29 H8         -2.9151    1.4773   -1.4572 H         1 <0>         0.1528
     30 H9         -2.6026    0.9641    2.8052 H         1 <0>         0.1382
     31 H10         0.1581   -2.4228    0.6780 H         1 <0>         0.0981
     32 H11         1.4715   -0.0037   -0.6687 H         1 <0>         0.0615
     33 H12         1.5988   -0.2125    1.0662 H         1 <0>         0.0645
     34 H13         2.6633   -2.6374    1.1287 H         1 <0>         0.3613
     35 H14        -4.7955    1.3504    0.3356 H         1 <0>         0.4215
@<TRIPOS>BOND
     1    1    2 ar
     2    1    3 ar
     3    2    6 ar
     4    3    7 ar
     5    4    8 ar
     6    4   10 ar
     7    5    9 ar
     8    5   10 ar
     9    6   11 ar
    10    7   11 ar
    11    8   12 ar
    12    9   12 ar
    13   10   16 1
    14   11   18 1
    15   12   20 1
    16   13   15 1
    17   13   18 am
    18   13   19 2
    19   14   17 1
    20   14   18 1
    21   14   21 2
    22   15   16 1
    23   15   17 1
    24    1   22 1
    25    2   23 1
    26    3   24 1
    27    4   25 1
    28    5   26 1
    29    6   27 1
    30    7   28 1
    31    8   29 1
    32    9   30 1
    33   15   31 1
    34   16   32 1
    35   16   33 1
    36   17   34 1
    37   20   35 1
@<TRIPOS>MOLECULE
ZINC00171204_4
   35    37     0     0     0
SMALL
USER_CHARGES

mmff94s_NoEstat = 81.92
@<TRIPOS>ATOM
      1 C1          1.8955   -4.5990   -5.8370 C.ar      1 <0>        -0.1284
      2 C2          1.2286   -3.4032   -5.5712 C.ar      1 <0>        -0.1217
      3 C3          2.4998   -5.3065   -4.7977 C.ar      1 <0>        -0.1222
      4 C4         -0.3502    1.5013   -0.6068 C.ar      1 <0>        -0.0908
      5 C5         -1.5253   -0.4824    0.1151 C.ar      1 <0>        -0.0628
      6 C6          1.1660   -2.9147   -4.2662 C.ar      1 <0>        -0.1187
      7 C7          2.4372   -4.8180   -3.4927 C.ar      1 <0>        -0.1256
      8 C8         -1.5681    2.1201   -0.8888 C.ar      1 <0>        -0.1555
      9 C9         -2.7431    0.1363   -0.1670 C.ar      1 <0>        -0.2092
     10 C10        -0.3438    0.2078   -0.1083 C.ar      1 <0>        -0.1329
     11 C11         1.7702   -3.6215   -3.2253 C.ar      1 <0>         0.0468
     12 C12        -2.7646    1.4376   -0.6689 C.ar      1 <0>         0.1332
     13 C13         0.6406   -2.3554   -1.4243 C.2       1 <0>         0.6925
     14 C14         2.6358   -3.2948   -0.8691 C.2       1 <0>         0.5548
     15 C15         0.9025   -1.9642    0.0216 C.3       1 <0>         0.0229
     16 C16         0.9734   -0.4611    0.1974 C.3       1 <0>        -0.0301
     17 N1          2.1705   -2.5964    0.2419 N.pl3     1 <0>        -0.5503
     18 N2          1.7058   -3.1213   -1.8897 N.am      1 <0>        -0.3891
     19 O1         -0.3561   -1.9789   -2.0303 O.2       1 <0>        -0.5506
     20 O2         -3.9531    2.0419   -0.9426 O.3       1 <0>        -0.4955
     21 S1          4.0296   -4.2074   -0.7757 S.2       1 <0>        -0.4561
     22 H1          1.9445   -4.9793   -6.8532 H         1 <0>         0.1358
     23 H2          0.7580   -2.8521   -6.3803 H         1 <0>         0.1374
     24 H3          3.0190   -6.2376   -5.0050 H         1 <0>         0.1364
     25 H4          0.5766    2.0409   -0.7815 H         1 <0>         0.1303
     26 H5         -1.5181   -1.4965    0.5062 H         1 <0>         0.1390
     27 H6          0.6437   -1.9813   -4.0714 H         1 <0>         0.1602
     28 H7          2.9121   -5.3780   -2.6907 H         1 <0>         0.1522
     29 H8         -1.5783    3.1338   -1.2795 H         1 <0>         0.1528
     30 H9         -3.6720   -0.4003    0.0073 H         1 <0>         0.1382
     31 H10         0.1581   -2.4228    0.6780 H         1 <0>         0.0981
     32 H11         1.7546   -0.0423   -0.4521 H         1 <0>         0.0615
     33 H12         1.2772   -0.2159    1.2247 H         1 <0>         0.0645
     34 H13         2.6633   -2.6374    1.1287 H         1 <0>         0.3613
     35 H14        -3.9797    2.3270   -1.8699 H         1 <0>         0.4215
@<TRIPOS>BOND
     1    1    2 ar
     2    1    3 ar
     3    2    6 ar
     4    3    7 ar
     5    4    8 ar
     6    4   10 ar
     7    5    9 ar
     8    5   10 ar
     9    6   11 ar
    10    7   11 ar
    11    8   12 ar
    12    9   12 ar
    13   10   16 1
    14   11   18 1
    15   12   20 1
    16   13   15 1
    17   13   18 am
    18   13   19 2
    19   14   17 1
    20   14   18 1
    21   14   21 2
    22   15   16 1
    23   15   17 1
    24    1   22 1
    25    2   23 1
    26    3   24 1
    27    4   25 1
    28    5   26 1
    29    6   27 1
    30    7   28 1
    31    8   29 1
    32    9   30 1
    33   15   31 1
    34   16   32 1
    35   16   33 1
    36   17   34 1
    37   20   35 1
@<TRIPOS>MOLECULE
ZINC00171204_5
   35    37     0     0     0
SMALL
USER_CHARGES

mmff94s_NoEstat = 84.27
@<TRIPOS>ATOM
      1 C1          1.8955   -4.5990   -5.8370 C.ar      1 <0>        -0.1284
      2 C2          1.2286   -3.4032   -5.5712 C.ar      1 <0>        -0.1217
      3 C3          2.4998   -5.3065   -4.7977 C.ar      1 <0>        -0.1222
      4 C4          0.9049    1.2907    1.9797 C.ar      1 <0>        -0.0908
      5 C5          0.7077   -1.0314    2.6170 C.ar      1 <0>        -0.0628
      6 C6          1.1660   -2.9147   -4.2662 C.ar      1 <0>        -0.1187
      7 C7          2.4372   -4.8180   -3.4927 C.ar      1 <0>        -0.1256
      8 C8          0.7990    1.6671    3.3186 C.ar      1 <0>        -0.1555
      9 C9          0.6018   -0.6549    3.9559 C.ar      1 <0>        -0.2092
     10 C10         0.8581   -0.0539    1.6454 C.ar      1 <0>        -0.1329
     11 C11         1.7702   -3.6215   -3.2253 C.ar      1 <0>         0.0468
     12 C12         0.6474    0.6944    4.3067 C.ar      1 <0>         0.1332
     13 C13         0.6406   -2.3554   -1.4243 C.2       1 <0>         0.6925
     14 C14         2.6358   -3.2948   -0.8691 C.2       1 <0>         0.5548
     15 C15         0.9025   -1.9642    0.0216 C.3       1 <0>         0.0229
     16 C16         0.9734   -0.4611    0.1974 C.3       1 <0>        -0.0301
     17 N1          2.1705   -2.5964    0.2419 N.pl3     1 <0>        -0.5503
     18 N2          1.7058   -3.1213   -1.8897 N.am      1 <0>        -0.3891
     19 O1         -0.3561   -1.9789   -2.0303 O.2       1 <0>        -0.5506
     20 O2          0.5456    1.0617    5.6134 O.3       1 <0>        -0.4955
     21 S1          4.0296   -4.2074   -0.7757 S.2       1 <0>        -0.4561
     22 H1          1.9445   -4.9793   -6.8532 H         1 <0>         0.1358
     23 H2          0.7580   -2.8521   -6.3803 H         1 <0>         0.1374
     24 H3          3.0190   -6.2376   -5.0050 H         1 <0>         0.1364
     25 H4          1.0226    2.0556    1.2170 H         1 <0>         0.1303
     26 H5          0.6714   -2.0851    2.3530 H         1 <0>         0.1390
     27 H6          0.6437   -1.9813   -4.0714 H         1 <0>         0.1602
     28 H7          2.9121   -5.3780   -2.6907 H         1 <0>         0.1522
     29 H8          0.8354    2.7197    3.5855 H         1 <0>         0.1528
     30 H9          0.4847   -1.4176    4.7214 H         1 <0>         0.1382
     31 H10         0.1581   -2.4228    0.6780 H         1 <0>         0.0981
     32 H11         0.1759    0.0239   -0.3825 H         1 <0>         0.0615
     33 H12         1.9169   -0.0776   -0.2153 H         1 <0>         0.0645
     34 H13         2.6633   -2.6374    1.1287 H         1 <0>         0.3613
     35 H14        -0.1961    1.6759    5.7333 H         1 <0>         0.4215
@<TRIPOS>BOND
     1    1    2 ar
     2    1    3 ar
     3    2    6 ar
     4    3    7 ar
     5    4    8 ar
     6    4   10 ar
     7    5    9 ar
     8    5   10 ar
     9    6   11 ar
    10    7   11 ar
    11    8   12 ar
    12    9   12 ar
    13   10   16 1
    14   11   18 1
    15   12   20 1
    16   13   15 1
    17   13   18 am
    18   13   19 2
    19   14   17 1
    20   14   18 1
    21   14   21 2
    22   15   16 1
    23   15   17 1
    24    1   22 1
    25    2   23 1
    26    3   24 1
    27    4   25 1
    28    5   26 1
    29    6   27 1
    30    7   28 1
    31    8   29 1
    32    9   30 1
    33   15   31 1
    34   16   32 1
    35   16   33 1
    36   17   34 1
    37   20   35 1
