@<TRIPOS>MOLECULE
1a2c_ligand_0
   92    94     0     0     0
SMALL
USER_CHARGES

@<TRIPOS>ATOM
      1 C1         13.3540  -20.7060   25.1210 C.ar      1 <0>        -0.0708
      2 C2         15.6020  -20.3590   24.5100 C.ar      1 <0>        -0.0872
      3 C3         13.7420  -20.8120   26.4210 C.ar      1 <0>        -0.2241
      4 C4         15.9950  -20.5080   25.8180 C.ar      1 <0>        -0.1600
      5 C5         14.2690  -20.3830   24.1940 C.ar      1 <0>        -0.1356
      6 C6         15.0680  -20.7230   26.7550 C.ar      1 <0>         0.1290
      7 C7         16.0070  -13.1080   20.5290 C.2       1 <0>         0.6664
      8 C8         16.4450  -14.9470   23.0150 C.2       1 <0>         0.6651
      9 C9         15.2360  -17.7810   22.7540 C.2       1 <0>         0.6454
     10 C10        10.6740  -11.8330   24.7200 C.cat     1 <0>         0.6349
     11 C11        20.8410  -14.3950   20.6040 C.3       1 <0>        -0.0642
     12 C12        20.6070  -15.1310   19.2150 C.3       1 <0>        -0.0747
     13 C13        18.5360  -13.2750   20.6590 C.3       1 <0>        -0.0873
     14 C14        18.3280  -16.0470   20.1460 C.3       1 <0>        -0.1371
     15 C15        17.1510  -13.5110   21.3110 C.3       1 <0>         0.0360
     16 C16        19.5390  -14.1750   21.3630 C.3       1 <0>        -0.0720
     17 C17        18.5180  -15.3340   21.5870 C.3       1 <0>         0.1201
     18 C18        19.7300  -16.3680   19.4980 C.3       1 <0>         0.1453
     19 C19        18.5880  -17.0490   26.5540 C.3       1 <0>        -0.0968
     20 C20        16.2430  -17.5850   26.1220 C.3       1 <0>        -0.0986
     21 C21        13.7910  -19.8430   22.8730 C.3       1 <0>        -0.0191
     22 C22        13.1740  -11.7830   21.9080 C.3       1 <0>        -0.1009
     23 C23        13.2090  -10.8090   20.7390 C.3       1 <0>        -0.0942
     24 C24        17.7670  -16.9500   24.2180 C.3       1 <0>        -0.0988
     25 C25        12.2180  -11.1000   22.9290 C.3       1 <0>         0.1966
     26 C26        14.5510  -10.6980   18.7130 C.3       1 <0>         0.1128
     27 C27        16.5660  -16.0380   24.0450 C.3       1 <0>         0.0786
     28 C28        13.8180  -18.3070   22.7360 C.3       1 <0>         0.0744
     29 C29        17.6580  -17.6860   25.5470 C.3       1 <0>        -0.0678
     30 C30        14.2540  -11.6070   19.9070 C.3       1 <0>         0.1065
     31 N1         17.2620  -14.7610   21.9760 N.am      1 <0>        -0.4315
     32 N2         10.1570  -12.8340   25.4680 N.pl3     1 <0>        -0.8671
     33 N3         10.3670  -10.5480   25.0080 N.pl3     1 <0>        -0.8581
     34 N4         15.4610  -11.8910   20.5710 N.am      1 <0>        -0.5687
     35 N5         15.4220  -16.8730   23.7010 N.am      1 <0>        -0.5746
     36 N6         11.4980  -12.1600   23.6800 N.pl3     1 <0>        -0.7533
     37 O1         15.5220  -13.9470   19.7680 O.2       1 <0>        -0.5843
     38 O2         15.4510  -14.2040   23.1150 O.2       1 <0>        -0.6812
     39 O3         16.1150  -18.1270   21.9550 O.2       1 <0>        -0.5788
     40 O4         15.4060  -20.9170   28.1120 O.3       1 <0>        -0.4938
     41 O5         20.4090  -17.4610   20.1070 O.3       1 <0>        -0.6030
     42 O6         15.7610  -11.0520   17.9370 O.3       1 <0>        -0.5860
     43 O7         13.0940  -17.6970   23.8350 O.3       1 <0>        -0.6021
     44 H1         12.3162  -20.8807   24.8371 H         1 <0>         0.1412
     45 H2         16.3476  -20.2222   23.7268 H         1 <0>         0.1451
     46 H3         12.9953  -20.9683   27.1995 H         1 <0>         0.1336
     47 H4         17.0497  -20.4515   26.0875 H         1 <0>         0.1567
     48 H5         21.5463  -15.0061   21.1673 H         1 <0>         0.0649
     49 H6         21.3489  -13.4570   20.3797 H         1 <0>         0.0476
     50 H7         21.5877  -15.4117   18.8309 H         1 <0>         0.0641
     51 H8         20.1041  -14.4226   18.5567 H         1 <0>         0.0484
     52 H9         18.7907  -12.2235   20.7914 H         1 <0>         0.0596
     53 H10        18.4534  -13.5294   19.6023 H         1 <0>         0.0757
     54 H11        17.7539  -16.9625   20.2886 H         1 <0>         0.0782
     55 H12        17.7543  -15.3780   19.5046 H         1 <0>         0.0812
     56 H13        17.2223  -12.7522   22.0903 H         1 <0>         0.0731
     57 H14        19.7908  -13.7197   22.3208 H         1 <0>         0.0511
     58 H15        18.8569  -15.9934   22.3860 H         1 <0>         0.0753
     59 H16        19.3282  -16.7080   18.5435 H         1 <0>         0.0427
     60 H17        18.5101  -17.5756   27.5052 H         1 <0>         0.0450
     61 H18        19.6137  -17.1074   26.1898 H         1 <0>         0.0406
     62 H19        18.3118  -16.0039   26.6942 H         1 <0>         0.0274
     63 H20        16.1967  -18.1200   27.0706 H         1 <0>         0.0476
     64 H21        15.9899  -16.5372   26.2837 H         1 <0>         0.0170
     65 H22        15.5334  -18.0258   25.4218 H         1 <0>         0.0477
     66 H23        14.4358  -20.2616   22.1003 H         1 <0>         0.0814
     67 H24        12.7611  -20.1750   22.7417 H         1 <0>         0.0685
     68 H25        14.1707  -11.9273   22.3248 H         1 <0>         0.1016
     69 H26        12.7972  -12.7561   21.5932 H         1 <0>         0.0660
     70 H27        12.2589  -10.6826   20.2199 H         1 <0>         0.0512
     71 H28        13.5446   -9.8031   20.9912 H         1 <0>         0.0454
     72 H29        18.6799  -16.3545   24.2060 H         1 <0>         0.0575
     73 H30        17.7941  -17.6733   23.4030 H         1 <0>         0.0743
     74 H31        12.7853  -10.4989   23.6396 H         1 <0>         0.0662
     75 H32        11.4826  -10.4848   22.4105 H         1 <0>         0.0622
     76 H33        13.6925  -10.7504   18.0434 H         1 <0>         0.0321
     77 H34        14.6805   -9.6868   19.0988 H         1 <0>         0.0204
     78 H35        16.4967  -15.6624   25.0659 H         1 <0>         0.0749
     79 H36        13.3182  -18.0354   21.8062 H         1 <0>         0.0719
     80 H37        17.9347  -18.7311   25.4077 H         1 <0>         0.0609
     81 H38        13.7914  -12.5536   19.6277 H         1 <0>         0.1063
     82 H39         9.5329  -12.6170   26.2581 H         1 <0>         0.4792
     83 H40        10.3872  -13.8134   25.2475 H         1 <0>         0.4819
     84 H41         9.7429  -10.3324   25.7985 H         1 <0>         0.4802
     85 H42        10.7574   -9.7848   24.4370 H         1 <0>         0.4826
     86 H43        15.9332  -11.1443   21.1005 H         1 <0>         0.3101
     87 H44        14.6031  -16.7303   24.3092 H         1 <0>         0.3087
     88 H45        11.6205  -13.1478   23.4153 H         1 <0>         0.4846
     89 H46        15.3549  -20.0174   28.6111 H         1 <0>         0.4194
     90 H47        19.8275  -17.8484   20.8638 H         1 <0>         0.4036
     91 H48        15.8098  -10.4672   17.0905 H         1 <0>         0.4114
     92 H49        13.3307  -16.6960   23.8891 H         1 <0>         0.3944
@<TRIPOS>BOND
     1    1    3 ar
     2    1    5 ar
     3    2    4 ar
     4    2    5 ar
     5    3    6 ar
     6    4    6 ar
     7    5   21 1
     8    6   40 1
     9    7   15 1
    10    7   34 am
    11    7   37 2
    12    8   27 1
    13    8   31 am
    14    8   38 2
    15    9   28 1
    16    9   35 am
    17    9   39 2
    18   10   32 1
    19   10   33 1
    20   10   36 1
    21   11   12 1
    22   11   16 1
    23   12   18 1
    24   13   15 1
    25   13   16 1
    26   14   17 1
    27   14   18 1
    28   15   31 1
    29   16   17 1
    30   17   31 1
    31   18   41 1
    32   19   29 1
    33   20   29 1
    34   21   28 1
    35   22   23 1
    36   22   25 1
    37   23   30 1
    38   24   27 1
    39   24   29 1
    40   25   36 1
    41   26   30 1
    42   26   42 1
    43   27   35 1
    44   28   43 1
    45   30   34 1
    46    1   44 1
    47    2   45 1
    48    3   46 1
    49    4   47 1
    50   11   48 1
    51   11   49 1
    52   12   50 1
    53   12   51 1
    54   13   52 1
    55   13   53 1
    56   14   54 1
    57   14   55 1
    58   15   56 1
    59   16   57 1
    60   17   58 1
    61   18   59 1
    62   19   60 1
    63   19   61 1
    64   19   62 1
    65   20   63 1
    66   20   64 1
    67   20   65 1
    68   21   66 1
    69   21   67 1
    70   22   68 1
    71   22   69 1
    72   23   70 1
    73   23   71 1
    74   24   72 1
    75   24   73 1
    76   25   74 1
    77   25   75 1
    78   26   76 1
    79   26   77 1
    80   27   78 1
    81   28   79 1
    82   29   80 1
    83   30   81 1
    84   32   82 1
    85   32   83 1
    86   33   84 1
    87   33   85 1
    88   34   86 1
    89   35   87 1
    90   36   88 1
    91   40   89 1
    92   41   90 1
    93   42   91 1
    94   43   92 1
@<TRIPOS>MOLECULE
1a2c_ligand_1
   92    94     0     0     0
SMALL
USER_CHARGES

mmff94s_NoEstat = 104.50
@<TRIPOS>ATOM
      1 C1         -8.6272   -2.8492   -1.4308 C.ar      1 <0>        -0.0708
      2 C2         -8.6280   -2.4747    0.9560 C.ar      1 <0>        -0.0872
      3 C3         -9.9370   -3.3232   -1.3568 C.ar      1 <0>        -0.2241
      4 C4         -9.9377   -2.9488    1.0300 C.ar      1 <0>        -0.1600
      5 C5         -7.9904   -2.4312   -0.2734 C.ar      1 <0>        -0.1356
      6 C6        -10.5923   -3.3731   -0.1264 C.ar      1 <0>         0.1290
      7 C7         -0.0512   -1.0561    0.2993 C.2       1 <0>         0.6664
      8 C8         -1.8469   -3.0457    2.1630 C.2       1 <0>         0.6651
      9 C9         -4.1811   -2.4610    0.1870 C.2       1 <0>         0.6454
     10 C10        -5.0538    3.8595   -0.8167 C.cat     1 <0>         0.6349
     11 C11         2.5186   -3.1911    0.6823 C.3       1 <0>        -0.0642
     12 C12         2.4580   -4.6414    0.2376 C.3       1 <0>        -0.0747
     13 C13         1.4874   -1.4827    2.2418 C.3       1 <0>        -0.0873
     14 C14         0.4946   -5.0934    1.7133 C.3       1 <0>        -0.1371
     15 C15         0.0412   -1.4176    1.7503 C.3       1 <0>         0.0360
     16 C16         1.8865   -2.9529    2.0632 C.3       1 <0>        -0.0720
     17 C17         0.5665   -3.7001    2.3454 C.3       1 <0>         0.1201
     18 C18         1.0248   -5.1525    0.2868 C.3       1 <0>         0.1453
     19 C19        -5.3726   -0.5418    3.1302 C.3       1 <0>        -0.0968
     20 C20        -3.4397    1.0389    2.9738 C.3       1 <0>        -0.0986
     21 C21        -6.5727   -1.9173   -0.3536 C.3       1 <0>        -0.0191
     22 C22        -1.8968    1.7896   -1.0188 C.3       1 <0>        -0.1009
     23 C23        -0.4337    2.0012   -1.4250 C.3       1 <0>        -0.0942
     24 C24        -2.9973   -1.3585    3.5851 C.3       1 <0>        -0.0988
     25 C25        -2.7062    3.0733   -1.1890 C.3       1 <0>         0.1966
     26 C26         1.9058    0.9774   -1.7696 C.3       1 <0>         0.1128
     27 C27        -2.7865   -1.8644    2.1628 C.3       1 <0>         0.0786
     28 C28        -5.5432   -3.0384   -0.1771 C.3       1 <0>         0.0744
     29 C29        -3.9969   -0.1898    3.6979 C.3       1 <0>        -0.0678
     30 C30         0.4555    0.7445   -1.3388 C.3       1 <0>         0.1065
     31 N1         -0.4979   -2.7598    1.9615 N.am      1 <0>        -0.4315
     32 N2         -6.3630    3.5983   -0.4259 N.pl3     1 <0>        -0.8671
     33 N3         -4.7148    5.1409   -1.2376 N.pl3     1 <0>        -0.8581
     34 N4          0.4455    0.1980   -0.0008 N.am      1 <0>        -0.5687
     35 N5         -3.9799   -2.3853    1.5634 N.am      1 <0>        -0.5746
     36 N6         -4.0759    2.8502   -0.7911 N.pl3     1 <0>        -0.7533
     37 O1         -0.5362   -1.8555   -0.4928 O.2       1 <0>        -0.5843
     38 O2         -2.2998   -4.1783    2.3409 O.2       1 <0>        -0.6812
     39 O3         -3.3708   -2.0954   -0.6616 O.2       1 <0>        -0.5788
     40 O4        -11.8709   -3.8342   -0.0545 O.3       1 <0>        -0.4938
     41 O5          0.9879   -6.5072   -0.1510 O.3       1 <0>        -0.6030
     42 O6          2.6391   -0.2366   -1.6731 O.3       1 <0>        -0.5860
     43 O7         -5.4138   -3.7436   -1.4033 O.3       1 <0>        -0.6021
     44 H1         -8.1249   -2.8142   -2.3937 H         1 <0>         0.1412
     45 H2         -8.1259   -2.1460    1.8623 H         1 <0>         0.1451
     46 H3        -10.4414   -3.6521   -2.2611 H         1 <0>         0.1336
     47 H4        -10.4433   -2.9843    1.9914 H         1 <0>         0.1567
     48 H5          3.5627   -2.8549    0.7003 H         1 <0>         0.0649
     49 H6          2.0259   -2.5829   -0.0837 H         1 <0>         0.0476
     50 H7          2.8567   -4.7427   -0.7790 H         1 <0>         0.0641
     51 H8          3.1032   -5.2618    0.8729 H         1 <0>         0.0484
     52 H9          2.1569   -0.7868    1.7257 H         1 <0>         0.0596
     53 H10         1.5124   -1.2395    3.3116 H         1 <0>         0.0757
     54 H11         1.0921   -5.7802    2.3299 H         1 <0>         0.0782
     55 H12        -0.5175   -5.5090    1.7393 H         1 <0>         0.0812
     56 H13        -0.5378   -0.6778    2.3126 H         1 <0>         0.0731
     57 H14         2.6304   -3.2407    2.8169 H         1 <0>         0.0511
     58 H15         0.4523   -3.8218    3.4319 H         1 <0>         0.0753
     59 H16         0.3841   -4.5700   -0.3844 H         1 <0>         0.0427
     60 H17        -6.0375    0.3284    3.1563 H         1 <0>         0.0450
     61 H18        -5.8542   -1.3328    3.7128 H         1 <0>         0.0406
     62 H19        -5.2988   -0.8789    2.0908 H         1 <0>         0.0274
     63 H20        -3.3028    0.8425    1.9049 H         1 <0>         0.0476
     64 H21        -4.1178    1.8926    3.0773 H         1 <0>         0.0170
     65 H22        -2.4708    1.3315    3.3922 H         1 <0>         0.0477
     66 H23        -6.4251   -1.1465    0.4146 H         1 <0>         0.0814
     67 H24        -6.4443   -1.4079   -1.3169 H         1 <0>         0.0685
     68 H25        -2.3478    0.9988   -1.6296 H         1 <0>         0.1016
     69 H26        -1.9571    1.4582    0.0248 H         1 <0>         0.0660
     70 H27         0.0021    2.7844   -0.7898 H         1 <0>         0.0512
     71 H28        -0.4008    2.3932   -2.4497 H         1 <0>         0.0454
     72 H29        -2.0302   -1.0518    4.0061 H         1 <0>         0.0575
     73 H30        -3.3514   -2.1846    4.2177 H         1 <0>         0.0743
     74 H31        -2.6850    3.4001   -2.2340 H         1 <0>         0.0662
     75 H32        -2.2833    3.8776   -0.5783 H         1 <0>         0.0622
     76 H33         2.4001    1.7344   -1.1517 H         1 <0>         0.0321
     77 H34         1.9468    1.3120   -2.8125 H         1 <0>         0.0204
     78 H35        -2.3647   -1.1082    1.5019 H         1 <0>         0.0749
     79 H36        -5.8508   -3.7504    0.5980 H         1 <0>         0.0719
     80 H37        -4.1195    0.0762    4.7551 H         1 <0>         0.0609
     81 H38         0.0149    0.0012   -2.0158 H         1 <0>         0.1063
     82 H39        -6.6569    2.6769   -0.1130 H         1 <0>         0.4792
     83 H40        -7.0699    4.3298   -0.4455 H         1 <0>         0.4819
     84 H41        -3.7671    5.3663   -1.5301 H         1 <0>         0.4802
     85 H42        -5.4059    5.8868   -1.2630 H         1 <0>         0.4826
     86 H43         0.8216    0.7626    0.7549 H         1 <0>         0.3101
     87 H44        -4.7231   -2.7191    2.1790 H         1 <0>         0.3087
     88 H45        -4.3806    1.9226   -0.4717 H         1 <0>         0.4846
     89 H46       -12.0198   -4.5188   -0.7260 H         1 <0>         0.4194
     90 H47         1.8515   -6.8926    0.0654 H         1 <0>         0.4036
     91 H48         2.8853   -0.3414   -0.7399 H         1 <0>         0.4114
     92 H49        -6.1819   -3.5045   -1.9474 H         1 <0>         0.3944
@<TRIPOS>BOND
     1    1    3 ar
     2    1    5 ar
     3    2    4 ar
     4    2    5 ar
     5    3    6 ar
     6    4    6 ar
     7    5   21 1
     8    6   40 1
     9    7   15 1
    10    7   34 am
    11    7   37 2
    12    8   27 1
    13    8   31 am
    14    8   38 2
    15    9   28 1
    16    9   35 am
    17    9   39 2
    18   10   32 1
    19   10   33 1
    20   10   36 1
    21   11   12 1
    22   11   16 1
    23   12   18 1
    24   13   15 1
    25   13   16 1
    26   14   17 1
    27   14   18 1
    28   15   31 1
    29   16   17 1
    30   17   31 1
    31   18   41 1
    32   19   29 1
    33   20   29 1
    34   21   28 1
    35   22   23 1
    36   22   25 1
    37   23   30 1
    38   24   27 1
    39   24   29 1
    40   25   36 1
    41   26   30 1
    42   26   42 1
    43   27   35 1
    44   28   43 1
    45   30   34 1
    46    1   44 1
    47    2   45 1
    48    3   46 1
    49    4   47 1
    50   11   48 1
    51   11   49 1
    52   12   50 1
    53   12   51 1
    54   13   52 1
    55   13   53 1
    56   14   54 1
    57   14   55 1
    58   15   56 1
    59   16   57 1
    60   17   58 1
    61   18   59 1
    62   19   60 1
    63   19   61 1
    64   19   62 1
    65   20   63 1
    66   20   64 1
    67   20   65 1
    68   21   66 1
    69   21   67 1
    70   22   68 1
    71   22   69 1
    72   23   70 1
    73   23   71 1
    74   24   72 1
    75   24   73 1
    76   25   74 1
    77   25   75 1
    78   26   76 1
    79   26   77 1
    80   27   78 1
    81   28   79 1
    82   29   80 1
    83   30   81 1
    84   32   82 1
    85   32   83 1
    86   33   84 1
    87   33   85 1
    88   34   86 1
    89   35   87 1
    90   36   88 1
    91   40   89 1
    92   41   90 1
    93   42   91 1
    94   43   92 1
@<TRIPOS>MOLECULE
1a2c_ligand_2
   92    94     0     0     0
SMALL
USER_CHARGES

mmff94s_NoEstat = 104.61
@<TRIPOS>ATOM
      1 C1         -7.9689   -3.8418   -2.3194 C.ar      1 <0>        -0.0708
      2 C2         -8.3571   -1.6716   -1.3311 C.ar      1 <0>        -0.0872
      3 C3         -9.3420   -4.0030   -2.5045 C.ar      1 <0>        -0.2241
      4 C4         -9.7301   -1.8328   -1.5162 C.ar      1 <0>        -0.1600
      5 C5         -7.4949   -2.6782   -1.7352 C.ar      1 <0>        -0.1356
      6 C6        -10.2227   -2.9986   -2.1029 C.ar      1 <0>         0.1290
      7 C7         -0.0512   -1.0561    0.2993 C.2       1 <0>         0.6664
      8 C8         -1.8469   -3.0457    2.1630 C.2       1 <0>         0.6651
      9 C9         -4.1811   -2.4610    0.1870 C.2       1 <0>         0.6454
     10 C10        -4.9611    2.5287   -1.1447 C.cat     1 <0>         0.6349
     11 C11         2.5186   -3.1911    0.6823 C.3       1 <0>        -0.0642
     12 C12         2.4580   -4.6414    0.2376 C.3       1 <0>        -0.0747
     13 C13         1.4874   -1.4827    2.2418 C.3       1 <0>        -0.0873
     14 C14         0.4946   -5.0934    1.7133 C.3       1 <0>        -0.1371
     15 C15         0.0412   -1.4176    1.7503 C.3       1 <0>         0.0360
     16 C16         1.8865   -2.9529    2.0632 C.3       1 <0>        -0.0720
     17 C17         0.5665   -3.7001    2.3454 C.3       1 <0>         0.1201
     18 C18         1.0248   -5.1525    0.2868 C.3       1 <0>         0.1453
     19 C19        -5.3726   -0.5418    3.1302 C.3       1 <0>        -0.0968
     20 C20        -3.4397    1.0389    2.9738 C.3       1 <0>        -0.0986
     21 C21        -6.0083   -2.5034   -1.5355 C.3       1 <0>        -0.0191
     22 C22        -1.2019    2.6554   -0.7648 C.3       1 <0>        -0.1009
     23 C23        -0.8794    1.4488   -1.6540 C.3       1 <0>        -0.0942
     24 C24        -2.9973   -1.3585    3.5851 C.3       1 <0>        -0.0988
     25 C25        -2.5638    3.2498   -1.1169 C.3       1 <0>         0.1966
     26 C26         1.6856    1.6412   -1.5001 C.3       1 <0>         0.1128
     27 C27        -2.7865   -1.8644    2.1628 C.3       1 <0>         0.0786
     28 C28        -5.5432   -3.0384   -0.1771 C.3       1 <0>         0.0744
     29 C29        -3.9969   -0.1898    3.6979 C.3       1 <0>        -0.0678
     30 C30         0.4555    0.7445   -1.3388 C.3       1 <0>         0.1065
     31 N1         -0.4979   -2.7598    1.9615 N.am      1 <0>        -0.4315
     32 N2         -5.9246    1.5452   -0.9464 N.pl3     1 <0>        -0.8671
     33 N3         -5.3591    3.7919   -1.5689 N.pl3     1 <0>        -0.8581
     34 N4          0.4455    0.1980   -0.0008 N.am      1 <0>        -0.5687
     35 N5         -3.9799   -2.3853    1.5634 N.am      1 <0>        -0.5746
     36 N6         -3.5989    2.2625   -0.9226 N.pl3     1 <0>        -0.7533
     37 O1         -0.5362   -1.8555   -0.4928 O.2       1 <0>        -0.5843
     38 O2         -2.2998   -4.1783    2.3409 O.2       1 <0>        -0.6812
     39 O3         -3.3708   -2.0954   -0.6616 O.2       1 <0>        -0.5788
     40 O4        -11.5624   -3.1552   -2.2851 O.3       1 <0>        -0.4938
     41 O5          0.9879   -6.5072   -0.1510 O.3       1 <0>        -0.6030
     42 O6          2.8639    0.9021   -1.2063 O.3       1 <0>        -0.5860
     43 O7         -5.4208   -4.4514   -0.2549 O.3       1 <0>        -0.6021
     44 H1         -7.2907   -4.6298   -2.6353 H         1 <0>         0.1412
     45 H2         -7.9823   -0.7598   -0.8733 H         1 <0>         0.1451
     46 H3         -9.7194   -4.9132   -2.9622 H         1 <0>         0.1336
     47 H4        -10.4112   -1.0463   -1.2021 H         1 <0>         0.1567
     48 H5          3.5627   -2.8549    0.7003 H         1 <0>         0.0649
     49 H6          2.0259   -2.5829   -0.0837 H         1 <0>         0.0476
     50 H7          2.8567   -4.7427   -0.7790 H         1 <0>         0.0641
     51 H8          3.1032   -5.2618    0.8729 H         1 <0>         0.0484
     52 H9          2.1569   -0.7868    1.7257 H         1 <0>         0.0596
     53 H10         1.5124   -1.2395    3.3116 H         1 <0>         0.0757
     54 H11         1.0921   -5.7802    2.3299 H         1 <0>         0.0782
     55 H12        -0.5175   -5.5090    1.7393 H         1 <0>         0.0812
     56 H13        -0.5378   -0.6778    2.3126 H         1 <0>         0.0731
     57 H14         2.6304   -3.2407    2.8169 H         1 <0>         0.0511
     58 H15         0.4523   -3.8218    3.4319 H         1 <0>         0.0753
     59 H16         0.3841   -4.5700   -0.3844 H         1 <0>         0.0427
     60 H17        -6.0375    0.3284    3.1563 H         1 <0>         0.0450
     61 H18        -5.8542   -1.3328    3.7128 H         1 <0>         0.0406
     62 H19        -5.2988   -0.8789    2.0908 H         1 <0>         0.0274
     63 H20        -3.3028    0.8425    1.9049 H         1 <0>         0.0476
     64 H21        -4.1178    1.8926    3.0773 H         1 <0>         0.0170
     65 H22        -2.4708    1.3315    3.3922 H         1 <0>         0.0477
     66 H23        -5.7555   -1.4385   -1.6272 H         1 <0>         0.0814
     67 H24        -5.4878   -3.0064   -2.3601 H         1 <0>         0.0685
     68 H25        -1.2036    2.3575    0.2901 H         1 <0>         0.1016
     69 H26        -0.4298    3.4262   -0.8760 H         1 <0>         0.0660
     70 H27        -0.8663    1.7736   -2.7033 H         1 <0>         0.0512
     71 H28        -1.6959    0.7195   -1.5759 H         1 <0>         0.0454
     72 H29        -2.0302   -1.0518    4.0061 H         1 <0>         0.0575
     73 H30        -3.3514   -2.1846    4.2177 H         1 <0>         0.0743
     74 H31        -2.5755    3.5811   -2.1607 H         1 <0>         0.0662
     75 H32        -2.7773    4.1198   -0.4874 H         1 <0>         0.0622
     76 H33         1.6463    2.5133   -0.8391 H         1 <0>         0.0321
     77 H34         1.7645    2.0016   -2.5321 H         1 <0>         0.0204
     78 H35        -2.3647   -1.1082    1.5019 H         1 <0>         0.0749
     79 H36        -6.2595   -2.7988    0.6177 H         1 <0>         0.0719
     80 H37        -4.1195    0.0762    4.7551 H         1 <0>         0.0609
     81 H38         0.5463   -0.0881   -2.0483 H         1 <0>         0.1063
     82 H39        -5.6803    0.6076   -0.6389 H         1 <0>         0.4792
     83 H40        -6.9102    1.7391   -1.1082 H         1 <0>         0.4819
     84 H41        -4.6810    4.5340   -1.7236 H         1 <0>         0.4802
     85 H42        -6.3394    4.0071   -1.7346 H         1 <0>         0.4826
     86 H43         0.8216    0.7626    0.7549 H         1 <0>         0.3101
     87 H44        -4.7231   -2.7191    2.1790 H         1 <0>         0.3087
     88 H45        -3.3608    1.3133   -0.6101 H         1 <0>         0.4846
     89 H46       -11.8054   -4.0915   -2.2056 H         1 <0>         0.4194
     90 H47         1.8515   -6.8926    0.0654 H         1 <0>         0.4036
     91 H48         2.9483    0.8828   -0.2393 H         1 <0>         0.4114
     92 H49        -5.9013   -4.7317   -1.0509 H         1 <0>         0.3944
@<TRIPOS>BOND
     1    1    3 ar
     2    1    5 ar
     3    2    4 ar
     4    2    5 ar
     5    3    6 ar
     6    4    6 ar
     7    5   21 1
     8    6   40 1
     9    7   15 1
    10    7   34 am
    11    7   37 2
    12    8   27 1
    13    8   31 am
    14    8   38 2
    15    9   28 1
    16    9   35 am
    17    9   39 2
    18   10   32 1
    19   10   33 1
    20   10   36 1
    21   11   12 1
    22   11   16 1
    23   12   18 1
    24   13   15 1
    25   13   16 1
    26   14   17 1
    27   14   18 1
    28   15   31 1
    29   16   17 1
    30   17   31 1
    31   18   41 1
    32   19   29 1
    33   20   29 1
    34   21   28 1
    35   22   23 1
    36   22   25 1
    37   23   30 1
    38   24   27 1
    39   24   29 1
    40   25   36 1
    41   26   30 1
    42   26   42 1
    43   27   35 1
    44   28   43 1
    45   30   34 1
    46    1   44 1
    47    2   45 1
    48    3   46 1
    49    4   47 1
    50   11   48 1
    51   11   49 1
    52   12   50 1
    53   12   51 1
    54   13   52 1
    55   13   53 1
    56   14   54 1
    57   14   55 1
    58   15   56 1
    59   16   57 1
    60   17   58 1
    61   18   59 1
    62   19   60 1
    63   19   61 1
    64   19   62 1
    65   20   63 1
    66   20   64 1
    67   20   65 1
    68   21   66 1
    69   21   67 1
    70   22   68 1
    71   22   69 1
    72   23   70 1
    73   23   71 1
    74   24   72 1
    75   24   73 1
    76   25   74 1
    77   25   75 1
    78   26   76 1
    79   26   77 1
    80   27   78 1
    81   28   79 1
    82   29   80 1
    83   30   81 1
    84   32   82 1
    85   32   83 1
    86   33   84 1
    87   33   85 1
    88   34   86 1
    89   35   87 1
    90   36   88 1
    91   40   89 1
    92   41   90 1
    93   42   91 1
    94   43   92 1
@<TRIPOS>MOLECULE
1a2c_ligand_3
   92    94     0     0     0
SMALL
USER_CHARGES

mmff94s_NoEstat = 104.87
@<TRIPOS>ATOM
      1 C1         -7.9932   -1.0210   -1.1999 C.ar      1 <0>        -0.0708
      2 C2         -5.8259   -0.0100   -1.5432 C.ar      1 <0>        -0.0872
      3 C3         -8.5676    0.2459   -1.0959 C.ar      1 <0>        -0.2241
      4 C4         -6.4004    1.2568   -1.4392 C.ar      1 <0>        -0.1600
      5 C5         -6.6301   -1.1319   -1.4222 C.ar      1 <0>        -0.1356
      6 C6         -7.7712    1.3848   -1.2155 C.ar      1 <0>         0.1290
      7 C7         -0.0512   -1.0561    0.2993 C.2       1 <0>         0.6664
      8 C8         -1.8469   -3.0457    2.1630 C.2       1 <0>         0.6651
      9 C9         -4.1811   -2.4610    0.1870 C.2       1 <0>         0.6454
     10 C10        -4.0116    5.1557   -0.3824 C.cat     1 <0>         0.6349
     11 C11         2.5186   -3.1911    0.6823 C.3       1 <0>        -0.0642
     12 C12         2.4580   -4.6414    0.2376 C.3       1 <0>        -0.0747
     13 C13         1.4874   -1.4827    2.2418 C.3       1 <0>        -0.0873
     14 C14         0.4946   -5.0934    1.7133 C.3       1 <0>        -0.1371
     15 C15         0.0412   -1.4176    1.7503 C.3       1 <0>         0.0360
     16 C16         1.8865   -2.9529    2.0632 C.3       1 <0>        -0.0720
     17 C17         0.5665   -3.7001    2.3454 C.3       1 <0>         0.1201
     18 C18         1.0248   -5.1525    0.2868 C.3       1 <0>         0.1453
     19 C19        -5.3726   -0.5418    3.1302 C.3       1 <0>        -0.0968
     20 C20        -3.4397    1.0389    2.9738 C.3       1 <0>        -0.0986
     21 C21        -6.0083   -2.5034   -1.5355 C.3       1 <0>        -0.0191
     22 C22        -1.2019    2.6554   -0.7648 C.3       1 <0>        -0.1009
     23 C23        -0.8794    1.4488   -1.6540 C.3       1 <0>        -0.0942
     24 C24        -2.9973   -1.3585    3.5851 C.3       1 <0>        -0.0988
     25 C25        -2.5638    3.2498   -1.1169 C.3       1 <0>         0.1966
     26 C26         1.6856    1.6412   -1.5001 C.3       1 <0>         0.1128
     27 C27        -2.7865   -1.8644    2.1628 C.3       1 <0>         0.0786
     28 C28        -5.5432   -3.0384   -0.1771 C.3       1 <0>         0.0744
     29 C29        -3.9969   -0.1898    3.6979 C.3       1 <0>        -0.0678
     30 C30         0.4555    0.7445   -1.3388 C.3       1 <0>         0.1065
     31 N1         -0.4979   -2.7598    1.9615 N.am      1 <0>        -0.4315
     32 N2         -4.2357    6.2444    0.4539 N.pl3     1 <0>        -0.8671
     33 N3         -4.9668    4.8273   -1.3383 N.pl3     1 <0>        -0.8581
     34 N4          0.4455    0.1980   -0.0008 N.am      1 <0>        -0.5687
     35 N5         -3.9799   -2.3853    1.5634 N.am      1 <0>        -0.5746
     36 N6         -2.8388    4.3887   -0.2734 N.pl3     1 <0>        -0.7533
     37 O1         -0.5362   -1.8555   -0.4928 O.2       1 <0>        -0.5843
     38 O2         -2.2998   -4.1783    2.3409 O.2       1 <0>        -0.6812
     39 O3         -3.3708   -2.0954   -0.6616 O.2       1 <0>        -0.5788
     40 O4         -8.3321    2.6210   -1.1157 O.3       1 <0>        -0.4938
     41 O5          0.9879   -6.5072   -0.1510 O.3       1 <0>        -0.6030
     42 O6          2.8639    0.9021   -1.2063 O.3       1 <0>        -0.5860
     43 O7         -5.4208   -4.4514   -0.2549 O.3       1 <0>        -0.6021
     44 H1         -8.6216   -1.9023   -1.1052 H         1 <0>         0.1412
     45 H2         -4.7569   -0.1001   -1.7178 H         1 <0>         0.1451
     46 H3         -9.6360    0.3389   -0.9219 H         1 <0>         0.1336
     47 H4         -5.7747    2.1405   -1.5342 H         1 <0>         0.1567
     48 H5          3.5627   -2.8549    0.7003 H         1 <0>         0.0649
     49 H6          2.0259   -2.5829   -0.0837 H         1 <0>         0.0476
     50 H7          2.8567   -4.7427   -0.7790 H         1 <0>         0.0641
     51 H8          3.1032   -5.2618    0.8729 H         1 <0>         0.0484
     52 H9          2.1569   -0.7868    1.7257 H         1 <0>         0.0596
     53 H10         1.5124   -1.2395    3.3116 H         1 <0>         0.0757
     54 H11         1.0921   -5.7802    2.3299 H         1 <0>         0.0782
     55 H12        -0.5175   -5.5090    1.7393 H         1 <0>         0.0812
     56 H13        -0.5378   -0.6778    2.3126 H         1 <0>         0.0731
     57 H14         2.6304   -3.2407    2.8169 H         1 <0>         0.0511
     58 H15         0.4523   -3.8218    3.4319 H         1 <0>         0.0753
     59 H16         0.3841   -4.5700   -0.3844 H         1 <0>         0.0427
     60 H17        -6.0375    0.3284    3.1563 H         1 <0>         0.0450
     61 H18        -5.8542   -1.3328    3.7128 H         1 <0>         0.0406
     62 H19        -5.2988   -0.8789    2.0908 H         1 <0>         0.0274
     63 H20        -3.3028    0.8425    1.9049 H         1 <0>         0.0476
     64 H21        -4.1178    1.8926    3.0773 H         1 <0>         0.0170
     65 H22        -2.4708    1.3315    3.3922 H         1 <0>         0.0477
     66 H23        -5.1607   -2.4579   -2.2324 H         1 <0>         0.0814
     67 H24        -6.7403   -3.1770   -1.9985 H         1 <0>         0.0685
     68 H25        -1.2036    2.3575    0.2901 H         1 <0>         0.1016
     69 H26        -0.4298    3.4262   -0.8760 H         1 <0>         0.0660
     70 H27        -0.8663    1.7736   -2.7033 H         1 <0>         0.0512
     71 H28        -1.6959    0.7195   -1.5759 H         1 <0>         0.0454
     72 H29        -2.0302   -1.0518    4.0061 H         1 <0>         0.0575
     73 H30        -3.3514   -2.1846    4.2177 H         1 <0>         0.0743
     74 H31        -3.3520    2.5022   -0.9783 H         1 <0>         0.0662
     75 H32        -2.5848    3.5678   -2.1644 H         1 <0>         0.0622
     76 H33         1.6463    2.5133   -0.8391 H         1 <0>         0.0321
     77 H34         1.7645    2.0016   -2.5321 H         1 <0>         0.0204
     78 H35        -2.3647   -1.1082    1.5019 H         1 <0>         0.0749
     79 H36        -6.2595   -2.7988    0.6177 H         1 <0>         0.0719
     80 H37        -4.1195    0.0762    4.7551 H         1 <0>         0.0609
     81 H38         0.5463   -0.0881   -2.0483 H         1 <0>         0.1063
     82 H39        -3.5669    6.5202    1.1680 H         1 <0>         0.4792
     83 H40        -5.0854    6.7983    0.3742 H         1 <0>         0.4819
     84 H41        -4.8350    4.0377   -1.9658 H         1 <0>         0.4802
     85 H42        -5.8222    5.3690   -1.4357 H         1 <0>         0.4826
     86 H43         0.8216    0.7626    0.7549 H         1 <0>         0.3101
     87 H44        -4.7231   -2.7191    2.1790 H         1 <0>         0.3087
     88 H45        -2.1673    4.6753    0.4493 H         1 <0>         0.4846
     89 H46        -9.0832    2.6009   -0.5014 H         1 <0>         0.4194
     90 H47         1.8515   -6.8926    0.0654 H         1 <0>         0.4036
     91 H48         2.9483    0.8828   -0.2393 H         1 <0>         0.4114
     92 H49        -5.9013   -4.7317   -1.0509 H         1 <0>         0.3944
@<TRIPOS>BOND
     1    1    3 ar
     2    1    5 ar
     3    2    4 ar
     4    2    5 ar
     5    3    6 ar
     6    4    6 ar
     7    5   21 1
     8    6   40 1
     9    7   15 1
    10    7   34 am
    11    7   37 2
    12    8   27 1
    13    8   31 am
    14    8   38 2
    15    9   28 1
    16    9   35 am
    17    9   39 2
    18   10   32 1
    19   10   33 1
    20   10   36 1
    21   11   12 1
    22   11   16 1
    23   12   18 1
    24   13   15 1
    25   13   16 1
    26   14   17 1
    27   14   18 1
    28   15   31 1
    29   16   17 1
    30   17   31 1
    31   18   41 1
    32   19   29 1
    33   20   29 1
    34   21   28 1
    35   22   23 1
    36   22   25 1
    37   23   30 1
    38   24   27 1
    39   24   29 1
    40   25   36 1
    41   26   30 1
    42   26   42 1
    43   27   35 1
    44   28   43 1
    45   30   34 1
    46    1   44 1
    47    2   45 1
    48    3   46 1
    49    4   47 1
    50   11   48 1
    51   11   49 1
    52   12   50 1
    53   12   51 1
    54   13   52 1
    55   13   53 1
    56   14   54 1
    57   14   55 1
    58   15   56 1
    59   16   57 1
    60   17   58 1
    61   18   59 1
    62   19   60 1
    63   19   61 1
    64   19   62 1
    65   20   63 1
    66   20   64 1
    67   20   65 1
    68   21   66 1
    69   21   67 1
    70   22   68 1
    71   22   69 1
    72   23   70 1
    73   23   71 1
    74   24   72 1
    75   24   73 1
    76   25   74 1
    77   25   75 1
    78   26   76 1
    79   26   77 1
    80   27   78 1
    81   28   79 1
    82   29   80 1
    83   30   81 1
    84   32   82 1
    85   32   83 1
    86   33   84 1
    87   33   85 1
    88   34   86 1
    89   35   87 1
    90   36   88 1
    91   40   89 1
    92   41   90 1
    93   42   91 1
    94   43   92 1
@<TRIPOS>MOLECULE
1a2c_ligand_4
   92    94     0     0     0
SMALL
USER_CHARGES

mmff94s_NoEstat = 105.40
@<TRIPOS>ATOM
      1 C1         -8.6272   -2.8492   -1.4308 C.ar      1 <0>        -0.0708
      2 C2         -8.6280   -2.4747    0.9560 C.ar      1 <0>        -0.0872
      3 C3         -9.9370   -3.3232   -1.3568 C.ar      1 <0>        -0.2241
      4 C4         -9.9377   -2.9488    1.0300 C.ar      1 <0>        -0.1600
      5 C5         -7.9904   -2.4312   -0.2734 C.ar      1 <0>        -0.1356
      6 C6        -10.5923   -3.3731   -0.1264 C.ar      1 <0>         0.1290
      7 C7         -0.0512   -1.0561    0.2993 C.2       1 <0>         0.6664
      8 C8         -1.8469   -3.0457    2.1630 C.2       1 <0>         0.6651
      9 C9         -4.1811   -2.4610    0.1870 C.2       1 <0>         0.6454
     10 C10        -2.7746    6.0237    0.0845 C.cat     1 <0>         0.6349
     11 C11         2.5186   -3.1911    0.6823 C.3       1 <0>        -0.0642
     12 C12         2.4580   -4.6414    0.2376 C.3       1 <0>        -0.0747
     13 C13         1.4874   -1.4827    2.2418 C.3       1 <0>        -0.0873
     14 C14         0.4946   -5.0934    1.7133 C.3       1 <0>        -0.1371
     15 C15         0.0412   -1.4176    1.7503 C.3       1 <0>         0.0360
     16 C16         1.8865   -2.9529    2.0632 C.3       1 <0>        -0.0720
     17 C17         0.5665   -3.7001    2.3454 C.3       1 <0>         0.1201
     18 C18         1.0248   -5.1525    0.2868 C.3       1 <0>         0.1453
     19 C19        -5.3726   -0.5418    3.1302 C.3       1 <0>        -0.0968
     20 C20        -3.4397    1.0389    2.9738 C.3       1 <0>        -0.0986
     21 C21        -6.5727   -1.9173   -0.3536 C.3       1 <0>        -0.0191
     22 C22        -1.0374    2.7415   -0.6235 C.3       1 <0>        -0.1009
     23 C23         0.2513    2.2726   -1.3090 C.3       1 <0>        -0.0942
     24 C24        -2.9973   -1.3585    3.5851 C.3       1 <0>        -0.0988
     25 C25        -1.1758    4.2607   -0.6924 C.3       1 <0>         0.1966
     26 C26         1.7383    0.3016   -2.0469 C.3       1 <0>         0.1128
     27 C27        -2.7865   -1.8644    2.1628 C.3       1 <0>         0.0786
     28 C28        -5.5432   -3.0384   -0.1771 C.3       1 <0>         0.0744
     29 C29        -3.9969   -0.1898    3.6979 C.3       1 <0>        -0.0678
     30 C30         0.4555    0.7445   -1.3388 C.3       1 <0>         0.1065
     31 N1         -0.4979   -2.7598    1.9615 N.am      1 <0>        -0.4315
     32 N2         -3.9558    6.3783    0.7278 N.pl3     1 <0>        -0.8671
     33 N3         -1.9667    7.0223   -0.4484 N.pl3     1 <0>        -0.8581
     34 N4          0.4455    0.1980   -0.0008 N.am      1 <0>        -0.5687
     35 N5         -3.9799   -2.3853    1.5634 N.am      1 <0>        -0.5746
     36 N6         -2.3904    4.6766   -0.0323 N.pl3     1 <0>        -0.7533
     37 O1         -0.5362   -1.8555   -0.4928 O.2       1 <0>        -0.5843
     38 O2         -2.2998   -4.1783    2.3409 O.2       1 <0>        -0.6812
     39 O3         -3.3708   -2.0954   -0.6616 O.2       1 <0>        -0.5788
     40 O4        -11.8709   -3.8342   -0.0545 O.3       1 <0>        -0.4938
     41 O5          0.9879   -6.5072   -0.1510 O.3       1 <0>        -0.6030
     42 O6          2.8703    0.8436   -1.3793 O.3       1 <0>        -0.5860
     43 O7         -5.4138   -3.7436   -1.4033 O.3       1 <0>        -0.6021
     44 H1         -8.1249   -2.8142   -2.3937 H         1 <0>         0.1412
     45 H2         -8.1259   -2.1460    1.8623 H         1 <0>         0.1451
     46 H3        -10.4414   -3.6521   -2.2611 H         1 <0>         0.1336
     47 H4        -10.4433   -2.9843    1.9914 H         1 <0>         0.1567
     48 H5          3.5627   -2.8549    0.7003 H         1 <0>         0.0649
     49 H6          2.0259   -2.5829   -0.0837 H         1 <0>         0.0476
     50 H7          2.8567   -4.7427   -0.7790 H         1 <0>         0.0641
     51 H8          3.1032   -5.2618    0.8729 H         1 <0>         0.0484
     52 H9          2.1569   -0.7868    1.7257 H         1 <0>         0.0596
     53 H10         1.5124   -1.2395    3.3116 H         1 <0>         0.0757
     54 H11         1.0921   -5.7802    2.3299 H         1 <0>         0.0782
     55 H12        -0.5175   -5.5090    1.7393 H         1 <0>         0.0812
     56 H13        -0.5378   -0.6778    2.3126 H         1 <0>         0.0731
     57 H14         2.6304   -3.2407    2.8169 H         1 <0>         0.0511
     58 H15         0.4523   -3.8218    3.4319 H         1 <0>         0.0753
     59 H16         0.3841   -4.5700   -0.3844 H         1 <0>         0.0427
     60 H17        -6.0375    0.3284    3.1563 H         1 <0>         0.0450
     61 H18        -5.8542   -1.3328    3.7128 H         1 <0>         0.0406
     62 H19        -5.2988   -0.8789    2.0908 H         1 <0>         0.0274
     63 H20        -3.3028    0.8425    1.9049 H         1 <0>         0.0476
     64 H21        -4.1178    1.8926    3.0773 H         1 <0>         0.0170
     65 H22        -2.4708    1.3315    3.3922 H         1 <0>         0.0477
     66 H23        -6.4251   -1.1465    0.4146 H         1 <0>         0.0814
     67 H24        -6.4443   -1.4079   -1.3169 H         1 <0>         0.0685
     68 H25        -1.9092    2.2808   -1.1025 H         1 <0>         0.1016
     69 H26        -1.0467    2.4234    0.4259 H         1 <0>         0.0660
     70 H27         1.1110    2.7323   -0.8028 H         1 <0>         0.0512
     71 H28         0.2685    2.6560   -2.3373 H         1 <0>         0.0454
     72 H29        -2.0302   -1.0518    4.0061 H         1 <0>         0.0575
     73 H30        -3.3514   -2.1846    4.2177 H         1 <0>         0.0743
     74 H31        -1.2027    4.5928   -1.7356 H         1 <0>         0.0662
     75 H32        -0.3220    4.7463   -0.2087 H         1 <0>         0.0622
     76 H33         1.7614    0.6251   -3.0928 H         1 <0>         0.0321
     77 H34         1.8289   -0.7905   -2.0281 H         1 <0>         0.0204
     78 H35        -2.3647   -1.1082    1.5019 H         1 <0>         0.0749
     79 H36        -5.8508   -3.7504    0.5980 H         1 <0>         0.0719
     80 H37        -4.1195    0.0762    4.7551 H         1 <0>         0.0609
     81 H38        -0.3978    0.3245   -1.8868 H         1 <0>         0.1063
     82 H39        -4.5782    5.6828    1.1306 H         1 <0>         0.4792
     83 H40        -4.2329    7.3536    0.8111 H         1 <0>         0.4819
     84 H41        -1.0966    6.7983   -0.9251 H         1 <0>         0.4802
     85 H42        -2.2244    8.0035   -0.3744 H         1 <0>         0.4826
     86 H43         0.8216    0.7626    0.7549 H         1 <0>         0.3101
     87 H44        -4.7231   -2.7191    2.1790 H         1 <0>         0.3087
     88 H45        -3.0238    3.9804    0.3791 H         1 <0>         0.4846
     89 H46       -12.0198   -4.5188   -0.7260 H         1 <0>         0.4194
     90 H47         1.8515   -6.8926    0.0654 H         1 <0>         0.4036
     91 H48         2.9636    1.7601   -1.6856 H         1 <0>         0.4114
     92 H49        -6.1819   -3.5045   -1.9474 H         1 <0>         0.3944
@<TRIPOS>BOND
     1    1    3 ar
     2    1    5 ar
     3    2    4 ar
     4    2    5 ar
     5    3    6 ar
     6    4    6 ar
     7    5   21 1
     8    6   40 1
     9    7   15 1
    10    7   34 am
    11    7   37 2
    12    8   27 1
    13    8   31 am
    14    8   38 2
    15    9   28 1
    16    9   35 am
    17    9   39 2
    18   10   32 1
    19   10   33 1
    20   10   36 1
    21   11   12 1
    22   11   16 1
    23   12   18 1
    24   13   15 1
    25   13   16 1
    26   14   17 1
    27   14   18 1
    28   15   31 1
    29   16   17 1
    30   17   31 1
    31   18   41 1
    32   19   29 1
    33   20   29 1
    34   21   28 1
    35   22   23 1
    36   22   25 1
    37   23   30 1
    38   24   27 1
    39   24   29 1
    40   25   36 1
    41   26   30 1
    42   26   42 1
    43   27   35 1
    44   28   43 1
    45   30   34 1
    46    1   44 1
    47    2   45 1
    48    3   46 1
    49    4   47 1
    50   11   48 1
    51   11   49 1
    52   12   50 1
    53   12   51 1
    54   13   52 1
    55   13   53 1
    56   14   54 1
    57   14   55 1
    58   15   56 1
    59   16   57 1
    60   17   58 1
    61   18   59 1
    62   19   60 1
    63   19   61 1
    64   19   62 1
    65   20   63 1
    66   20   64 1
    67   20   65 1
    68   21   66 1
    69   21   67 1
    70   22   68 1
    71   22   69 1
    72   23   70 1
    73   23   71 1
    74   24   72 1
    75   24   73 1
    76   25   74 1
    77   25   75 1
    78   26   76 1
    79   26   77 1
    80   27   78 1
    81   28   79 1
    82   29   80 1
    83   30   81 1
    84   32   82 1
    85   32   83 1
    86   33   84 1
    87   33   85 1
    88   34   86 1
    89   35   87 1
    90   36   88 1
    91   40   89 1
    92   41   90 1
    93   42   91 1
    94   43   92 1
@<TRIPOS>MOLECULE
1a2c_ligand_5
   92    94     0     0     0
SMALL
USER_CHARGES

mmff94s_NoEstat = 105.53
@<TRIPOS>ATOM
      1 C1         -7.9689   -3.8418   -2.3194 C.ar      1 <0>        -0.0708
      2 C2         -8.3571   -1.6716   -1.3311 C.ar      1 <0>        -0.0872
      3 C3         -9.3420   -4.0030   -2.5045 C.ar      1 <0>        -0.2241
      4 C4         -9.7301   -1.8328   -1.5162 C.ar      1 <0>        -0.1600
      5 C5         -7.4949   -2.6782   -1.7352 C.ar      1 <0>        -0.1356
      6 C6        -10.2227   -2.9986   -2.1029 C.ar      1 <0>         0.1290
      7 C7         -0.0512   -1.0561    0.2993 C.2       1 <0>         0.6664
      8 C8         -1.8469   -3.0457    2.1630 C.2       1 <0>         0.6651
      9 C9         -4.1811   -2.4610    0.1870 C.2       1 <0>         0.6454
     10 C10        -4.0116    5.1557   -0.3824 C.cat     1 <0>         0.6349
     11 C11         2.5186   -3.1911    0.6823 C.3       1 <0>        -0.0642
     12 C12         2.4580   -4.6414    0.2376 C.3       1 <0>        -0.0747
     13 C13         1.4874   -1.4827    2.2418 C.3       1 <0>        -0.0873
     14 C14         0.4946   -5.0934    1.7133 C.3       1 <0>        -0.1371
     15 C15         0.0412   -1.4176    1.7503 C.3       1 <0>         0.0360
     16 C16         1.8865   -2.9529    2.0632 C.3       1 <0>        -0.0720
     17 C17         0.5665   -3.7001    2.3454 C.3       1 <0>         0.1201
     18 C18         1.0248   -5.1525    0.2868 C.3       1 <0>         0.1453
     19 C19        -5.3726   -0.5418    3.1302 C.3       1 <0>        -0.0968
     20 C20        -3.4397    1.0389    2.9738 C.3       1 <0>        -0.0986
     21 C21        -6.0083   -2.5034   -1.5355 C.3       1 <0>        -0.0191
     22 C22        -1.2019    2.6554   -0.7648 C.3       1 <0>        -0.1009
     23 C23        -0.8794    1.4488   -1.6540 C.3       1 <0>        -0.0942
     24 C24        -2.9973   -1.3585    3.5851 C.3       1 <0>        -0.0988
     25 C25        -2.5638    3.2498   -1.1169 C.3       1 <0>         0.1966
     26 C26         1.6856    1.6412   -1.5001 C.3       1 <0>         0.1128
     27 C27        -2.7865   -1.8644    2.1628 C.3       1 <0>         0.0786
     28 C28        -5.5432   -3.0384   -0.1771 C.3       1 <0>         0.0744
     29 C29        -3.9969   -0.1898    3.6979 C.3       1 <0>        -0.0678
     30 C30         0.4555    0.7445   -1.3388 C.3       1 <0>         0.1065
     31 N1         -0.4979   -2.7598    1.9615 N.am      1 <0>        -0.4315
     32 N2         -4.2357    6.2444    0.4539 N.pl3     1 <0>        -0.8671
     33 N3         -4.9668    4.8273   -1.3383 N.pl3     1 <0>        -0.8581
     34 N4          0.4455    0.1980   -0.0008 N.am      1 <0>        -0.5687
     35 N5         -3.9799   -2.3853    1.5634 N.am      1 <0>        -0.5746
     36 N6         -2.8388    4.3887   -0.2734 N.pl3     1 <0>        -0.7533
     37 O1         -0.5362   -1.8555   -0.4928 O.2       1 <0>        -0.5843
     38 O2         -2.2998   -4.1783    2.3409 O.2       1 <0>        -0.6812
     39 O3         -3.3708   -2.0954   -0.6616 O.2       1 <0>        -0.5788
     40 O4        -11.5624   -3.1552   -2.2851 O.3       1 <0>        -0.4938
     41 O5          0.9879   -6.5072   -0.1510 O.3       1 <0>        -0.6030
     42 O6          2.8639    0.9021   -1.2063 O.3       1 <0>        -0.5860
     43 O7         -5.4208   -4.4514   -0.2549 O.3       1 <0>        -0.6021
     44 H1         -7.2907   -4.6298   -2.6353 H         1 <0>         0.1412
     45 H2         -7.9823   -0.7598   -0.8733 H         1 <0>         0.1451
     46 H3         -9.7194   -4.9132   -2.9622 H         1 <0>         0.1336
     47 H4        -10.4112   -1.0463   -1.2021 H         1 <0>         0.1567
     48 H5          3.5627   -2.8549    0.7003 H         1 <0>         0.0649
     49 H6          2.0259   -2.5829   -0.0837 H         1 <0>         0.0476
     50 H7          2.8567   -4.7427   -0.7790 H         1 <0>         0.0641
     51 H8          3.1032   -5.2618    0.8729 H         1 <0>         0.0484
     52 H9          2.1569   -0.7868    1.7257 H         1 <0>         0.0596
     53 H10         1.5124   -1.2395    3.3116 H         1 <0>         0.0757
     54 H11         1.0921   -5.7802    2.3299 H         1 <0>         0.0782
     55 H12        -0.5175   -5.5090    1.7393 H         1 <0>         0.0812
     56 H13        -0.5378   -0.6778    2.3126 H         1 <0>         0.0731
     57 H14         2.6304   -3.2407    2.8169 H         1 <0>         0.0511
     58 H15         0.4523   -3.8218    3.4319 H         1 <0>         0.0753
     59 H16         0.3841   -4.5700   -0.3844 H         1 <0>         0.0427
     60 H17        -6.0375    0.3284    3.1563 H         1 <0>         0.0450
     61 H18        -5.8542   -1.3328    3.7128 H         1 <0>         0.0406
     62 H19        -5.2988   -0.8789    2.0908 H         1 <0>         0.0274
     63 H20        -3.3028    0.8425    1.9049 H         1 <0>         0.0476
     64 H21        -4.1178    1.8926    3.0773 H         1 <0>         0.0170
     65 H22        -2.4708    1.3315    3.3922 H         1 <0>         0.0477
     66 H23        -5.7555   -1.4385   -1.6272 H         1 <0>         0.0814
     67 H24        -5.4878   -3.0064   -2.3601 H         1 <0>         0.0685
     68 H25        -1.2036    2.3575    0.2901 H         1 <0>         0.1016
     69 H26        -0.4298    3.4262   -0.8760 H         1 <0>         0.0660
     70 H27        -0.8663    1.7736   -2.7033 H         1 <0>         0.0512
     71 H28        -1.6959    0.7195   -1.5759 H         1 <0>         0.0454
     72 H29        -2.0302   -1.0518    4.0061 H         1 <0>         0.0575
     73 H30        -3.3514   -2.1846    4.2177 H         1 <0>         0.0743
     74 H31        -3.3520    2.5022   -0.9783 H         1 <0>         0.0662
     75 H32        -2.5848    3.5678   -2.1644 H         1 <0>         0.0622
     76 H33         1.6463    2.5133   -0.8391 H         1 <0>         0.0321
     77 H34         1.7645    2.0016   -2.5321 H         1 <0>         0.0204
     78 H35        -2.3647   -1.1082    1.5019 H         1 <0>         0.0749
     79 H36        -6.2595   -2.7988    0.6177 H         1 <0>         0.0719
     80 H37        -4.1195    0.0762    4.7551 H         1 <0>         0.0609
     81 H38         0.5463   -0.0881   -2.0483 H         1 <0>         0.1063
     82 H39        -3.5669    6.5202    1.1680 H         1 <0>         0.4792
     83 H40        -5.0854    6.7983    0.3742 H         1 <0>         0.4819
     84 H41        -4.8350    4.0377   -1.9658 H         1 <0>         0.4802
     85 H42        -5.8222    5.3690   -1.4357 H         1 <0>         0.4826
     86 H43         0.8216    0.7626    0.7549 H         1 <0>         0.3101
     87 H44        -4.7231   -2.7191    2.1790 H         1 <0>         0.3087
     88 H45        -2.1673    4.6753    0.4493 H         1 <0>         0.4846
     89 H46       -11.8054   -4.0915   -2.2056 H         1 <0>         0.4194
     90 H47         1.8515   -6.8926    0.0654 H         1 <0>         0.4036
     91 H48         2.9483    0.8828   -0.2393 H         1 <0>         0.4114
     92 H49        -5.9013   -4.7317   -1.0509 H         1 <0>         0.3944
@<TRIPOS>BOND
     1    1    3 ar
     2    1    5 ar
     3    2    4 ar
     4    2    5 ar
     5    3    6 ar
     6    4    6 ar
     7    5   21 1
     8    6   40 1
     9    7   15 1
    10    7   34 am
    11    7   37 2
    12    8   27 1
    13    8   31 am
    14    8   38 2
    15    9   28 1
    16    9   35 am
    17    9   39 2
    18   10   32 1
    19   10   33 1
    20   10   36 1
    21   11   12 1
    22   11   16 1
    23   12   18 1
    24   13   15 1
    25   13   16 1
    26   14   17 1
    27   14   18 1
    28   15   31 1
    29   16   17 1
    30   17   31 1
    31   18   41 1
    32   19   29 1
    33   20   29 1
    34   21   28 1
    35   22   23 1
    36   22   25 1
    37   23   30 1
    38   24   27 1
    39   24   29 1
    40   25   36 1
    41   26   30 1
    42   26   42 1
    43   27   35 1
    44   28   43 1
    45   30   34 1
    46    1   44 1
    47    2   45 1
    48    3   46 1
    49    4   47 1
    50   11   48 1
    51   11   49 1
    52   12   50 1
    53   12   51 1
    54   13   52 1
    55   13   53 1
    56   14   54 1
    57   14   55 1
    58   15   56 1
    59   16   57 1
    60   17   58 1
    61   18   59 1
    62   19   60 1
    63   19   61 1
    64   19   62 1
    65   20   63 1
    66   20   64 1
    67   20   65 1
    68   21   66 1
    69   21   67 1
    70   22   68 1
    71   22   69 1
    72   23   70 1
    73   23   71 1
    74   24   72 1
    75   24   73 1
    76   25   74 1
    77   25   75 1
    78   26   76 1
    79   26   77 1
    80   27   78 1
    81   28   79 1
    82   29   80 1
    83   30   81 1
    84   32   82 1
    85   32   83 1
    86   33   84 1
    87   33   85 1
    88   34   86 1
    89   35   87 1
    90   36   88 1
    91   40   89 1
    92   41   90 1
    93   42   91 1
    94   43   92 1
@<TRIPOS>MOLECULE
1a2c_ligand_6
   92    94     0     0     0
SMALL
USER_CHARGES

mmff94s_NoEstat = 105.61
@<TRIPOS>ATOM
      1 C1         -8.2899   -0.7257   -3.8297 C.ar      1 <0>        -0.0708
      2 C2         -8.8083   -1.0629   -1.4942 C.ar      1 <0>        -0.0872
      3 C3         -9.6238   -0.9646   -4.1603 C.ar      1 <0>        -0.2241
      4 C4        -10.1422   -1.3018   -1.8248 C.ar      1 <0>        -0.1600
      5 C5         -7.9001   -0.7780   -2.5012 C.ar      1 <0>        -0.1356
      6 C6        -10.5500   -1.2526   -3.1579 C.ar      1 <0>         0.1290
      7 C7         -0.1674   -1.0853   -0.0424 C.2       1 <0>         0.6664
      8 C8         -2.5997   -3.1326    0.7250 C.2       1 <0>         0.6651
      9 C9         -4.3299   -1.6044   -1.3634 C.2       1 <0>         0.6454
     10 C10        -3.9129    3.3143   -1.1794 C.cat     1 <0>         0.6349
     11 C11         2.0445   -3.7524    0.2047 C.3       1 <0>        -0.0642
     12 C12         2.1951   -5.1517   -0.3975 C.3       1 <0>        -0.0747
     13 C13         0.7864   -2.3272    1.9103 C.3       1 <0>        -0.0873
     14 C14        -0.3466   -4.9962   -0.4055 C.3       1 <0>        -0.1371
     15 C15        -0.4770   -1.8334    1.2187 C.3       1 <0>         0.0360
     16 C16         1.0305   -3.7327    1.3503 C.3       1 <0>        -0.0720
     17 C17        -0.3661   -4.2312    0.9284 C.3       1 <0>         0.1201
     18 C18         0.8694   -5.9135   -0.5141 C.3       1 <0>         0.1453
     19 C19        -5.9631   -0.4404    1.7581 C.3       1 <0>        -0.0968
     20 C20        -3.8887    0.7550    2.4841 C.3       1 <0>        -0.0986
     21 C21        -6.4561   -0.5187   -2.1432 C.3       1 <0>        -0.0191
     22 C22        -0.3657    2.9388    0.0730 C.3       1 <0>        -0.1009
     23 C23         0.9718    2.4190   -0.4671 C.3       1 <0>        -0.0942
     24 C24        -3.8619   -1.7555    2.3678 C.3       1 <0>        -0.0988
     25 C25        -1.4736    2.7918   -0.9676 C.3       1 <0>         0.1966
     26 C26         2.3035    0.4585   -1.4784 C.3       1 <0>         0.1128
     27 C27        -3.3800   -1.8574    0.9254 C.3       1 <0>         0.0786
     28 C28        -5.6231   -1.8048   -2.1437 C.3       1 <0>         0.0744
     29 C29        -4.7285   -0.5135    2.6578 C.3       1 <0>        -0.0678
     30 C30         0.9627    0.9465   -0.9241 C.3       1 <0>         0.1065
     31 N1         -1.2224   -3.0398    0.8850 N.am      1 <0>        -0.4315
     32 N2         -5.0903    3.8087   -0.6278 N.pl3     1 <0>        -0.8671
     33 N3         -3.9255    2.8321   -2.4837 N.pl3     1 <0>        -0.8581
     34 N4          0.5562    0.0753    0.1551 N.am      1 <0>        -0.5687
     35 N5         -4.4491   -1.9660   -0.0233 N.am      1 <0>        -0.5746
     36 N6         -2.7184    3.2966   -0.4387 N.pl3     1 <0>        -0.7533
     37 O1         -0.5544   -1.5275   -1.1177 O.2       1 <0>        -0.5843
     38 O2         -3.1933   -4.1752    0.4418 O.2       1 <0>        -0.6812
     39 O3         -3.3092   -1.1565   -1.8810 O.2       1 <0>        -0.5788
     40 O4        -11.8519   -1.4841   -3.4804 O.3       1 <0>        -0.4938
     41 O5          0.7872   -6.8901    0.5248 O.3       1 <0>        -0.6030
     42 O6          3.3063    0.5601   -0.4760 O.3       1 <0>        -0.5860
     43 O7         -5.2872   -2.1367   -3.4832 O.3       1 <0>        -0.6021
     44 H1         -7.5756   -0.5023   -4.6175 H         1 <0>         0.1412
     45 H2         -8.4997   -1.1031   -0.4528 H         1 <0>         0.1451
     46 H3         -9.9352   -0.9247   -5.2004 H         1 <0>         0.1336
     47 H4        -10.8593   -1.5248   -1.0392 H         1 <0>         0.1567
     48 H5          3.0220   -3.4003    0.5555 H         1 <0>         0.0649
     49 H6          1.7363   -3.0584   -0.5866 H         1 <0>         0.0476
     50 H7          2.6388   -5.0399   -1.3944 H         1 <0>         0.0641
     51 H8          2.9088   -5.7297    0.2024 H         1 <0>         0.0484
     52 H9          1.6439   -1.6583    1.7836 H         1 <0>         0.0596
     53 H10         0.5887   -2.4119    2.9867 H         1 <0>         0.0757
     54 H11        -1.2632   -5.5927   -0.4872 H         1 <0>         0.0782
     55 H12        -0.3526   -4.2949   -1.2498 H         1 <0>         0.0812
     56 H13        -1.0651   -1.1731    1.8629 H         1 <0>         0.0731
     57 H14         1.4245   -4.3763    2.1480 H         1 <0>         0.0511
     58 H15        -0.7725   -4.8823    1.7135 H         1 <0>         0.0753
     59 H16         0.8433   -6.4624   -1.4612 H         1 <0>         0.0427
     60 H17        -6.5181    0.4873    1.9352 H         1 <0>         0.0450
     61 H18        -6.6497   -1.2692    1.9547 H         1 <0>         0.0406
     62 H19        -5.6850   -0.4702    0.6992 H         1 <0>         0.0274
     63 H20        -3.5277    0.8553    1.4548 H         1 <0>         0.0476
     64 H21        -4.4764    1.6472    2.7254 H         1 <0>         0.0170
     65 H22        -3.0188    0.7404    3.1493 H         1 <0>         0.0477
     66 H23        -6.4103   -0.0409   -1.1554 H         1 <0>         0.0814
     67 H24        -6.0521    0.2168   -2.8502 H         1 <0>         0.0685
     68 H25        -0.6484    2.3866    0.9768 H         1 <0>         0.1016
     69 H26        -0.2753    3.9932    0.3603 H         1 <0>         0.0660
     70 H27         1.7402    2.5418    0.3082 H         1 <0>         0.0512
     71 H28         1.2882    3.0521   -1.3060 H         1 <0>         0.0454
     72 H29        -2.9928   -1.7573    3.0396 H         1 <0>         0.0575
     73 H30        -4.4407   -2.6540    2.6237 H         1 <0>         0.0743
     74 H31        -1.6009    1.7390   -1.2410 H         1 <0>         0.0662
     75 H32        -1.2215    3.3457   -1.8778 H         1 <0>         0.0622
     76 H33         2.6215    1.0387   -2.3510 H         1 <0>         0.0321
     77 H34         2.2342   -0.5935   -1.7781 H         1 <0>         0.0204
     78 H35        -2.7366   -1.0282    0.6336 H         1 <0>         0.0749
     79 H36        -6.1781   -2.6452   -1.7102 H         1 <0>         0.0719
     80 H37        -5.0656   -0.5471    3.7011 H         1 <0>         0.0609
     81 H38         0.2159    0.8710   -1.7251 H         1 <0>         0.1063
     82 H39        -5.1291    4.1693    0.3217 H         1 <0>         0.4792
     83 H40        -5.9543    3.8203   -1.1649 H         1 <0>         0.4819
     84 H41        -3.0827    2.4636   -2.9177 H         1 <0>         0.4802
     85 H42        -4.7781    2.8363   -3.0385 H         1 <0>         0.4826
     86 H43         0.8147    0.3282    1.1041 H         1 <0>         0.3101
     87 H44        -5.3471   -2.3283    0.3008 H         1 <0>         0.3087
     88 H45        -2.7657    3.6647    0.5191 H         1 <0>         0.4846
     89 H46       -11.9124   -1.9085   -4.3510 H         1 <0>         0.4194
     90 H47         1.3049   -6.5470    1.2701 H         1 <0>         0.4036
     91 H48         3.5968    1.4864   -0.4636 H         1 <0>         0.4114
     92 H49        -5.8765   -1.6203   -4.0570 H         1 <0>         0.3944
@<TRIPOS>BOND
     1    1    3 ar
     2    1    5 ar
     3    2    4 ar
     4    2    5 ar
     5    3    6 ar
     6    4    6 ar
     7    5   21 1
     8    6   40 1
     9    7   15 1
    10    7   34 am
    11    7   37 2
    12    8   27 1
    13    8   31 am
    14    8   38 2
    15    9   28 1
    16    9   35 am
    17    9   39 2
    18   10   32 1
    19   10   33 1
    20   10   36 1
    21   11   12 1
    22   11   16 1
    23   12   18 1
    24   13   15 1
    25   13   16 1
    26   14   17 1
    27   14   18 1
    28   15   31 1
    29   16   17 1
    30   17   31 1
    31   18   41 1
    32   19   29 1
    33   20   29 1
    34   21   28 1
    35   22   23 1
    36   22   25 1
    37   23   30 1
    38   24   27 1
    39   24   29 1
    40   25   36 1
    41   26   30 1
    42   26   42 1
    43   27   35 1
    44   28   43 1
    45   30   34 1
    46    1   44 1
    47    2   45 1
    48    3   46 1
    49    4   47 1
    50   11   48 1
    51   11   49 1
    52   12   50 1
    53   12   51 1
    54   13   52 1
    55   13   53 1
    56   14   54 1
    57   14   55 1
    58   15   56 1
    59   16   57 1
    60   17   58 1
    61   18   59 1
    62   19   60 1
    63   19   61 1
    64   19   62 1
    65   20   63 1
    66   20   64 1
    67   20   65 1
    68   21   66 1
    69   21   67 1
    70   22   68 1
    71   22   69 1
    72   23   70 1
    73   23   71 1
    74   24   72 1
    75   24   73 1
    76   25   74 1
    77   25   75 1
    78   26   76 1
    79   26   77 1
    80   27   78 1
    81   28   79 1
    82   29   80 1
    83   30   81 1
    84   32   82 1
    85   32   83 1
    86   33   84 1
    87   33   85 1
    88   34   86 1
    89   35   87 1
    90   36   88 1
    91   40   89 1
    92   41   90 1
    93   42   91 1
    94   43   92 1
@<TRIPOS>MOLECULE
1a2c_ligand_7
   92    94     0     0     0
SMALL
USER_CHARGES

mmff94s_NoEstat = 105.72
@<TRIPOS>ATOM
      1 C1         -8.1123   -5.1215    0.2464 C.ar      1 <0>        -0.0708
      2 C2         -6.5169   -6.0095   -1.3358 C.ar      1 <0>        -0.0872
      3 C3         -9.1310   -5.8431   -0.3759 C.ar      1 <0>        -0.2241
      4 C4         -7.5356   -6.7311   -1.9580 C.ar      1 <0>        -0.1600
      5 C5         -6.8190   -5.2144   -0.2419 C.ar      1 <0>        -0.1356
      6 C6         -8.8427   -6.6480   -1.4781 C.ar      1 <0>         0.1290
      7 C7         -0.0512   -1.0561    0.2993 C.2       1 <0>         0.6664
      8 C8         -1.8469   -3.0457    2.1630 C.2       1 <0>         0.6651
      9 C9         -4.1811   -2.4610    0.1870 C.2       1 <0>         0.6454
     10 C10        -5.0538    3.8595   -0.8167 C.cat     1 <0>         0.6349
     11 C11         2.5186   -3.1911    0.6823 C.3       1 <0>        -0.0642
     12 C12         2.4580   -4.6414    0.2376 C.3       1 <0>        -0.0747
     13 C13         1.4874   -1.4827    2.2418 C.3       1 <0>        -0.0873
     14 C14         0.4946   -5.0934    1.7133 C.3       1 <0>        -0.1371
     15 C15         0.0412   -1.4176    1.7503 C.3       1 <0>         0.0360
     16 C16         1.8865   -2.9529    2.0632 C.3       1 <0>        -0.0720
     17 C17         0.5665   -3.7001    2.3454 C.3       1 <0>         0.1201
     18 C18         1.0248   -5.1525    0.2868 C.3       1 <0>         0.1453
     19 C19        -5.3726   -0.5418    3.1302 C.3       1 <0>        -0.0968
     20 C20        -3.4397    1.0389    2.9738 C.3       1 <0>        -0.0986
     21 C21        -5.7160   -4.4337    0.4322 C.3       1 <0>        -0.0191
     22 C22        -1.8968    1.7896   -1.0188 C.3       1 <0>        -0.1009
     23 C23        -0.4337    2.0012   -1.4250 C.3       1 <0>        -0.0942
     24 C24        -2.9973   -1.3585    3.5851 C.3       1 <0>        -0.0988
     25 C25        -2.7062    3.0733   -1.1890 C.3       1 <0>         0.1966
     26 C26         1.9058    0.9774   -1.7696 C.3       1 <0>         0.1128
     27 C27        -2.7865   -1.8644    2.1628 C.3       1 <0>         0.0786
     28 C28        -5.5432   -3.0384   -0.1771 C.3       1 <0>         0.0744
     29 C29        -3.9969   -0.1898    3.6979 C.3       1 <0>        -0.0678
     30 C30         0.4555    0.7445   -1.3388 C.3       1 <0>         0.1065
     31 N1         -0.4979   -2.7598    1.9615 N.am      1 <0>        -0.4315
     32 N2         -6.3630    3.5983   -0.4259 N.pl3     1 <0>        -0.8671
     33 N3         -4.7148    5.1409   -1.2376 N.pl3     1 <0>        -0.8581
     34 N4          0.4455    0.1980   -0.0008 N.am      1 <0>        -0.5687
     35 N5         -3.9799   -2.3853    1.5634 N.am      1 <0>        -0.5746
     36 N6         -4.0759    2.8502   -0.7911 N.pl3     1 <0>        -0.7533
     37 O1         -0.5362   -1.8555   -0.4928 O.2       1 <0>        -0.5843
     38 O2         -2.2998   -4.1783    2.3409 O.2       1 <0>        -0.6812
     39 O3         -3.3708   -2.0954   -0.6616 O.2       1 <0>        -0.5788
     40 O4         -9.8364   -7.3534   -2.0842 O.3       1 <0>        -0.4938
     41 O5          0.9879   -6.5072   -0.1510 O.3       1 <0>        -0.6030
     42 O6          2.6391   -0.2366   -1.6731 O.3       1 <0>        -0.5860
     43 O7         -6.5451   -2.1786    0.3468 O.3       1 <0>        -0.6021
     44 H1         -8.3466   -4.4971    1.1042 H         1 <0>         0.1412
     45 H2         -5.5013   -6.0806   -1.7164 H         1 <0>         0.1451
     46 H3        -10.1470   -5.7743    0.0027 H         1 <0>         0.1336
     47 H4         -7.3045   -7.3572   -2.8158 H         1 <0>         0.1567
     48 H5          3.5627   -2.8549    0.7003 H         1 <0>         0.0649
     49 H6          2.0259   -2.5829   -0.0837 H         1 <0>         0.0476
     50 H7          2.8567   -4.7427   -0.7790 H         1 <0>         0.0641
     51 H8          3.1032   -5.2618    0.8729 H         1 <0>         0.0484
     52 H9          2.1569   -0.7868    1.7257 H         1 <0>         0.0596
     53 H10         1.5124   -1.2395    3.3116 H         1 <0>         0.0757
     54 H11         1.0921   -5.7802    2.3299 H         1 <0>         0.0782
     55 H12        -0.5175   -5.5090    1.7393 H         1 <0>         0.0812
     56 H13        -0.5378   -0.6778    2.3126 H         1 <0>         0.0731
     57 H14         2.6304   -3.2407    2.8169 H         1 <0>         0.0511
     58 H15         0.4523   -3.8218    3.4319 H         1 <0>         0.0753
     59 H16         0.3841   -4.5700   -0.3844 H         1 <0>         0.0427
     60 H17        -6.0375    0.3284    3.1563 H         1 <0>         0.0450
     61 H18        -5.8542   -1.3328    3.7128 H         1 <0>         0.0406
     62 H19        -5.2988   -0.8789    2.0908 H         1 <0>         0.0274
     63 H20        -3.3028    0.8425    1.9049 H         1 <0>         0.0476
     64 H21        -4.1178    1.8926    3.0773 H         1 <0>         0.0170
     65 H22        -2.4708    1.3315    3.3922 H         1 <0>         0.0477
     66 H23        -4.7767   -4.9973    0.3545 H         1 <0>         0.0814
     67 H24        -5.9411   -4.3740    1.5044 H         1 <0>         0.0685
     68 H25        -2.3478    0.9988   -1.6296 H         1 <0>         0.1016
     69 H26        -1.9571    1.4582    0.0248 H         1 <0>         0.0660
     70 H27         0.0021    2.7844   -0.7898 H         1 <0>         0.0512
     71 H28        -0.4008    2.3932   -2.4497 H         1 <0>         0.0454
     72 H29        -2.0302   -1.0518    4.0061 H         1 <0>         0.0575
     73 H30        -3.3514   -2.1846    4.2177 H         1 <0>         0.0743
     74 H31        -2.6850    3.4001   -2.2340 H         1 <0>         0.0662
     75 H32        -2.2833    3.8776   -0.5783 H         1 <0>         0.0622
     76 H33         2.4001    1.7344   -1.1517 H         1 <0>         0.0321
     77 H34         1.9468    1.3120   -2.8125 H         1 <0>         0.0204
     78 H35        -2.3647   -1.1082    1.5019 H         1 <0>         0.0749
     79 H36        -5.6447   -3.0594   -1.2687 H         1 <0>         0.0719
     80 H37        -4.1195    0.0762    4.7551 H         1 <0>         0.0609
     81 H38         0.0149    0.0012   -2.0158 H         1 <0>         0.1063
     82 H39        -6.6569    2.6769   -0.1130 H         1 <0>         0.4792
     83 H40        -7.0699    4.3298   -0.4455 H         1 <0>         0.4819
     84 H41        -3.7671    5.3663   -1.5301 H         1 <0>         0.4802
     85 H42        -5.4059    5.8868   -1.2630 H         1 <0>         0.4826
     86 H43         0.8216    0.7626    0.7549 H         1 <0>         0.3101
     87 H44        -4.7231   -2.7191    2.1790 H         1 <0>         0.3087
     88 H45        -4.3806    1.9226   -0.4717 H         1 <0>         0.4846
     89 H46       -10.6756   -6.8692   -2.0272 H         1 <0>         0.4194
     90 H47         1.8515   -6.8926    0.0654 H         1 <0>         0.4036
     91 H48         2.8853   -0.3414   -0.7399 H         1 <0>         0.4114
     92 H49        -7.2229   -2.7477    0.7466 H         1 <0>         0.3944
@<TRIPOS>BOND
     1    1    3 ar
     2    1    5 ar
     3    2    4 ar
     4    2    5 ar
     5    3    6 ar
     6    4    6 ar
     7    5   21 1
     8    6   40 1
     9    7   15 1
    10    7   34 am
    11    7   37 2
    12    8   27 1
    13    8   31 am
    14    8   38 2
    15    9   28 1
    16    9   35 am
    17    9   39 2
    18   10   32 1
    19   10   33 1
    20   10   36 1
    21   11   12 1
    22   11   16 1
    23   12   18 1
    24   13   15 1
    25   13   16 1
    26   14   17 1
    27   14   18 1
    28   15   31 1
    29   16   17 1
    30   17   31 1
    31   18   41 1
    32   19   29 1
    33   20   29 1
    34   21   28 1
    35   22   23 1
    36   22   25 1
    37   23   30 1
    38   24   27 1
    39   24   29 1
    40   25   36 1
    41   26   30 1
    42   26   42 1
    43   27   35 1
    44   28   43 1
    45   30   34 1
    46    1   44 1
    47    2   45 1
    48    3   46 1
    49    4   47 1
    50   11   48 1
    51   11   49 1
    52   12   50 1
    53   12   51 1
    54   13   52 1
    55   13   53 1
    56   14   54 1
    57   14   55 1
    58   15   56 1
    59   16   57 1
    60   17   58 1
    61   18   59 1
    62   19   60 1
    63   19   61 1
    64   19   62 1
    65   20   63 1
    66   20   64 1
    67   20   65 1
    68   21   66 1
    69   21   67 1
    70   22   68 1
    71   22   69 1
    72   23   70 1
    73   23   71 1
    74   24   72 1
    75   24   73 1
    76   25   74 1
    77   25   75 1
    78   26   76 1
    79   26   77 1
    80   27   78 1
    81   28   79 1
    82   29   80 1
    83   30   81 1
    84   32   82 1
    85   32   83 1
    86   33   84 1
    87   33   85 1
    88   34   86 1
    89   35   87 1
    90   36   88 1
    91   40   89 1
    92   41   90 1
    93   42   91 1
    94   43   92 1
@<TRIPOS>MOLECULE
1a2c_ligand_8
   92    94     0     0     0
SMALL
USER_CHARGES

mmff94s_NoEstat = 105.77
@<TRIPOS>ATOM
      1 C1         -7.5346    0.8177   -2.9104 C.ar      1 <0>        -0.0708
      2 C2         -5.2514    1.4900   -2.4958 C.ar      1 <0>        -0.0872
      3 C3         -7.9778    2.0803   -2.5169 C.ar      1 <0>        -0.2241
      4 C4         -5.6946    2.7527   -2.1023 C.ar      1 <0>        -0.1600
      5 C5         -6.1773    0.5395   -2.8946 C.ar      1 <0>        -0.1356
      6 C6         -7.0578    3.0479   -2.1128 C.ar      1 <0>         0.1290
      7 C7         -0.1674   -1.0853   -0.0424 C.2       1 <0>         0.6664
      8 C8         -2.5997   -3.1326    0.7250 C.2       1 <0>         0.6651
      9 C9         -4.3299   -1.6044   -1.3634 C.2       1 <0>         0.6454
     10 C10        -1.7570    5.8380   -2.0365 C.cat     1 <0>         0.6349
     11 C11         2.0445   -3.7524    0.2047 C.3       1 <0>        -0.0642
     12 C12         2.1951   -5.1517   -0.3975 C.3       1 <0>        -0.0747
     13 C13         0.7864   -2.3272    1.9103 C.3       1 <0>        -0.0873
     14 C14        -0.3466   -4.9962   -0.4055 C.3       1 <0>        -0.1371
     15 C15        -0.4770   -1.8334    1.2187 C.3       1 <0>         0.0360
     16 C16         1.0305   -3.7327    1.3503 C.3       1 <0>        -0.0720
     17 C17        -0.3661   -4.2312    0.9284 C.3       1 <0>         0.1201
     18 C18         0.8694   -5.9135   -0.5141 C.3       1 <0>         0.1453
     19 C19        -5.9631   -0.4404    1.7581 C.3       1 <0>        -0.0968
     20 C20        -3.8887    0.7550    2.4841 C.3       1 <0>        -0.0986
     21 C21        -5.6975   -0.8273   -3.3213 C.3       1 <0>        -0.0191
     22 C22        -1.2290    2.3228   -0.7494 C.3       1 <0>        -0.1009
     23 C23         0.3037    2.3337   -0.7876 C.3       1 <0>        -0.0942
     24 C24        -3.8619   -1.7555    2.3678 C.3       1 <0>        -0.0988
     25 C25        -1.7874    3.7418   -0.6680 C.3       1 <0>         0.1966
     26 C26         2.4918    0.9866   -0.9811 C.3       1 <0>         0.1128
     27 C27        -3.3800   -1.8574    0.9254 C.3       1 <0>         0.0786
     28 C28        -5.6231   -1.8048   -2.1437 C.3       1 <0>         0.0744
     29 C29        -4.7285   -0.5135    2.6578 C.3       1 <0>        -0.0678
     30 C30         0.9627    0.9465   -0.9241 C.3       1 <0>         0.1065
     31 N1         -1.2224   -3.0398    0.8850 N.am      1 <0>        -0.4315
     32 N2         -1.3335    6.5330   -3.1646 N.pl3     1 <0>        -0.8671
     33 N3         -2.5707    6.4809   -1.1099 N.pl3     1 <0>        -0.8581
     34 N4          0.5562    0.0753    0.1551 N.am      1 <0>        -0.5687
     35 N5         -4.4491   -1.9660   -0.0233 N.am      1 <0>        -0.5746
     36 N6         -1.3748    4.5022   -1.8237 N.pl3     1 <0>        -0.7533
     37 O1         -0.5544   -1.5275   -1.1177 O.2       1 <0>        -0.5843
     38 O2         -3.1933   -4.1752    0.4418 O.2       1 <0>        -0.6812
     39 O3         -3.3092   -1.1565   -1.8810 O.2       1 <0>        -0.5788
     40 O4         -7.4902    4.2805   -1.7304 O.3       1 <0>        -0.4938
     41 O5          0.7872   -6.8901    0.5248 O.3       1 <0>        -0.6030
     42 O6          3.0045   -0.3315   -1.1244 O.3       1 <0>        -0.5860
     43 O7         -5.6385   -3.1336   -2.6450 O.3       1 <0>        -0.6021
     44 H1         -8.2588    0.0704   -3.2233 H         1 <0>         0.1412
     45 H2         -4.1872    1.2690   -2.4847 H         1 <0>         0.1451
     46 H3         -9.0409    2.3042   -2.5274 H         1 <0>         0.1336
     47 H4         -4.9728    3.5026   -1.7894 H         1 <0>         0.1567
     48 H5          3.0220   -3.4003    0.5555 H         1 <0>         0.0649
     49 H6          1.7363   -3.0584   -0.5866 H         1 <0>         0.0476
     50 H7          2.6388   -5.0399   -1.3944 H         1 <0>         0.0641
     51 H8          2.9088   -5.7297    0.2024 H         1 <0>         0.0484
     52 H9          1.6439   -1.6583    1.7836 H         1 <0>         0.0596
     53 H10         0.5887   -2.4119    2.9867 H         1 <0>         0.0757
     54 H11        -1.2632   -5.5927   -0.4872 H         1 <0>         0.0782
     55 H12        -0.3526   -4.2949   -1.2498 H         1 <0>         0.0812
     56 H13        -1.0651   -1.1731    1.8629 H         1 <0>         0.0731
     57 H14         1.4245   -4.3763    2.1480 H         1 <0>         0.0511
     58 H15        -0.7725   -4.8823    1.7135 H         1 <0>         0.0753
     59 H16         0.8433   -6.4624   -1.4612 H         1 <0>         0.0427
     60 H17        -6.5181    0.4873    1.9352 H         1 <0>         0.0450
     61 H18        -6.6497   -1.2692    1.9547 H         1 <0>         0.0406
     62 H19        -5.6850   -0.4702    0.6992 H         1 <0>         0.0274
     63 H20        -3.5277    0.8553    1.4548 H         1 <0>         0.0476
     64 H21        -4.4764    1.6472    2.7254 H         1 <0>         0.0170
     65 H22        -3.0188    0.7404    3.1493 H         1 <0>         0.0477
     66 H23        -4.7106   -0.7311   -3.7935 H         1 <0>         0.0814
     67 H24        -6.3690   -1.1997   -4.1051 H         1 <0>         0.0685
     68 H25        -1.6256    1.8333   -1.6465 H         1 <0>         0.1016
     69 H26        -1.5833    1.7433    0.1115 H         1 <0>         0.0660
     70 H27         0.6789    2.8127    0.1271 H         1 <0>         0.0512
     71 H28         0.6355    2.9707   -1.6175 H         1 <0>         0.0454
     72 H29        -2.9928   -1.7573    3.0396 H         1 <0>         0.0575
     73 H30        -4.4407   -2.6540    2.6237 H         1 <0>         0.0743
     74 H31        -1.4261    4.2409    0.2374 H         1 <0>         0.0662
     75 H32        -2.8812    3.7220   -0.6253 H         1 <0>         0.0622
     76 H33         2.9238    1.4335   -0.0796 H         1 <0>         0.0321
     77 H34         2.8279    1.5728   -1.8441 H         1 <0>         0.0204
     78 H35        -2.7366   -1.0282    0.6336 H         1 <0>         0.0749
     79 H36        -6.4753   -1.6838   -1.4644 H         1 <0>         0.0719
     80 H37        -5.0656   -0.5471    3.7011 H         1 <0>         0.0609
     81 H38         0.5984    0.5173   -1.8665 H         1 <0>         0.1063
     82 H39        -0.7368    6.1046   -3.8673 H         1 <0>         0.4792
     83 H40        -1.6105    7.5000   -3.3171 H         1 <0>         0.4819
     84 H41        -2.8982    6.0025   -0.2743 H         1 <0>         0.4802
     85 H42        -2.8605    7.4466   -1.2443 H         1 <0>         0.4826
     86 H43         0.8147    0.3282    1.1041 H         1 <0>         0.3101
     87 H44        -5.3471   -2.3283    0.3008 H         1 <0>         0.3087
     88 H45        -0.7735    4.0762   -2.5394 H         1 <0>         0.4846
     89 H46        -8.3618    4.2152   -1.3085 H         1 <0>         0.4194
     90 H47         1.3049   -6.5470    1.2701 H         1 <0>         0.4036
     91 H48         3.0027   -0.7302   -0.2393 H         1 <0>         0.4114
     92 H49        -5.9469   -3.0835   -3.5645 H         1 <0>         0.3944
@<TRIPOS>BOND
     1    1    3 ar
     2    1    5 ar
     3    2    4 ar
     4    2    5 ar
     5    3    6 ar
     6    4    6 ar
     7    5   21 1
     8    6   40 1
     9    7   15 1
    10    7   34 am
    11    7   37 2
    12    8   27 1
    13    8   31 am
    14    8   38 2
    15    9   28 1
    16    9   35 am
    17    9   39 2
    18   10   32 1
    19   10   33 1
    20   10   36 1
    21   11   12 1
    22   11   16 1
    23   12   18 1
    24   13   15 1
    25   13   16 1
    26   14   17 1
    27   14   18 1
    28   15   31 1
    29   16   17 1
    30   17   31 1
    31   18   41 1
    32   19   29 1
    33   20   29 1
    34   21   28 1
    35   22   23 1
    36   22   25 1
    37   23   30 1
    38   24   27 1
    39   24   29 1
    40   25   36 1
    41   26   30 1
    42   26   42 1
    43   27   35 1
    44   28   43 1
    45   30   34 1
    46    1   44 1
    47    2   45 1
    48    3   46 1
    49    4   47 1
    50   11   48 1
    51   11   49 1
    52   12   50 1
    53   12   51 1
    54   13   52 1
    55   13   53 1
    56   14   54 1
    57   14   55 1
    58   15   56 1
    59   16   57 1
    60   17   58 1
    61   18   59 1
    62   19   60 1
    63   19   61 1
    64   19   62 1
    65   20   63 1
    66   20   64 1
    67   20   65 1
    68   21   66 1
    69   21   67 1
    70   22   68 1
    71   22   69 1
    72   23   70 1
    73   23   71 1
    74   24   72 1
    75   24   73 1
    76   25   74 1
    77   25   75 1
    78   26   76 1
    79   26   77 1
    80   27   78 1
    81   28   79 1
    82   29   80 1
    83   30   81 1
    84   32   82 1
    85   32   83 1
    86   33   84 1
    87   33   85 1
    88   34   86 1
    89   35   87 1
    90   36   88 1
    91   40   89 1
    92   41   90 1
    93   42   91 1
    94   43   92 1
@<TRIPOS>MOLECULE
1a2c_ligand_9
   92    94     0     0     0
SMALL
USER_CHARGES

mmff94s_NoEstat = 105.79
@<TRIPOS>ATOM
      1 C1         -7.6915   -4.5534   -2.2285 C.ar      1 <0>        -0.0708
      2 C2         -7.8704   -2.1497   -2.3935 C.ar      1 <0>        -0.0872
      3 C3         -9.0245   -4.6794   -2.6196 C.ar      1 <0>        -0.2241
      4 C4         -9.2033   -2.2757   -2.7846 C.ar      1 <0>        -0.1600
      5 C5         -7.1323   -3.2903   -2.1207 C.ar      1 <0>        -0.1356
      6 C6         -9.7804   -3.5406   -2.8977 C.ar      1 <0>         0.1290
      7 C7         -0.0512   -1.0561    0.2993 C.2       1 <0>         0.6664
      8 C8         -1.8469   -3.0457    2.1630 C.2       1 <0>         0.6651
      9 C9         -4.1811   -2.4610    0.1870 C.2       1 <0>         0.6454
     10 C10        -2.7746    6.0237    0.0845 C.cat     1 <0>         0.6349
     11 C11         2.5186   -3.1911    0.6823 C.3       1 <0>        -0.0642
     12 C12         2.4580   -4.6414    0.2376 C.3       1 <0>        -0.0747
     13 C13         1.4874   -1.4827    2.2418 C.3       1 <0>        -0.0873
     14 C14         0.4946   -5.0934    1.7133 C.3       1 <0>        -0.1371
     15 C15         0.0412   -1.4176    1.7503 C.3       1 <0>         0.0360
     16 C16         1.8865   -2.9529    2.0632 C.3       1 <0>        -0.0720
     17 C17         0.5665   -3.7001    2.3454 C.3       1 <0>         0.1201
     18 C18         1.0248   -5.1525    0.2868 C.3       1 <0>         0.1453
     19 C19        -5.3726   -0.5418    3.1302 C.3       1 <0>        -0.0968
     20 C20        -3.4397    1.0389    2.9738 C.3       1 <0>        -0.0986
     21 C21        -5.6890   -3.1540   -1.6980 C.3       1 <0>        -0.0191
     22 C22        -1.0374    2.7415   -0.6235 C.3       1 <0>        -0.1009
     23 C23         0.2513    2.2726   -1.3090 C.3       1 <0>        -0.0942
     24 C24        -2.9973   -1.3585    3.5851 C.3       1 <0>        -0.0988
     25 C25        -1.1758    4.2607   -0.6924 C.3       1 <0>         0.1966
     26 C26         1.7383    0.3016   -2.0469 C.3       1 <0>         0.1128
     27 C27        -2.7865   -1.8644    2.1628 C.3       1 <0>         0.0786
     28 C28        -5.5432   -3.0384   -0.1771 C.3       1 <0>         0.0744
     29 C29        -3.9969   -0.1898    3.6979 C.3       1 <0>        -0.0678
     30 C30         0.4555    0.7445   -1.3388 C.3       1 <0>         0.1065
     31 N1         -0.4979   -2.7598    1.9615 N.am      1 <0>        -0.4315
     32 N2         -3.9558    6.3783    0.7278 N.pl3     1 <0>        -0.8671
     33 N3         -1.9667    7.0223   -0.4484 N.pl3     1 <0>        -0.8581
     34 N4          0.4455    0.1980   -0.0008 N.am      1 <0>        -0.5687
     35 N5         -3.9799   -2.3853    1.5634 N.am      1 <0>        -0.5746
     36 N6         -2.3904    4.6766   -0.0323 N.pl3     1 <0>        -0.7533
     37 O1         -0.5362   -1.8555   -0.4928 O.2       1 <0>        -0.5843
     38 O2         -2.2998   -4.1783    2.3409 O.2       1 <0>        -0.6812
     39 O3         -3.3708   -2.0954   -0.6616 O.2       1 <0>        -0.5788
     40 O4        -11.0807   -3.6636   -3.2809 O.3       1 <0>        -0.4938
     41 O5          0.9879   -6.5072   -0.1510 O.3       1 <0>        -0.6030
     42 O6          2.8703    0.8436   -1.3793 O.3       1 <0>        -0.5860
     43 O7         -5.6445   -4.3341    0.3961 O.3       1 <0>        -0.6021
     44 H1         -7.1107   -5.4463   -2.0139 H         1 <0>         0.1412
     45 H2         -7.4289   -1.1601   -2.3083 H         1 <0>         0.1451
     46 H3         -9.4682   -5.6674   -2.7060 H         1 <0>         0.1336
     47 H4         -9.7869   -1.3847   -3.0007 H         1 <0>         0.1567
     48 H5          3.5627   -2.8549    0.7003 H         1 <0>         0.0649
     49 H6          2.0259   -2.5829   -0.0837 H         1 <0>         0.0476
     50 H7          2.8567   -4.7427   -0.7790 H         1 <0>         0.0641
     51 H8          3.1032   -5.2618    0.8729 H         1 <0>         0.0484
     52 H9          2.1569   -0.7868    1.7257 H         1 <0>         0.0596
     53 H10         1.5124   -1.2395    3.3116 H         1 <0>         0.0757
     54 H11         1.0921   -5.7802    2.3299 H         1 <0>         0.0782
     55 H12        -0.5175   -5.5090    1.7393 H         1 <0>         0.0812
     56 H13        -0.5378   -0.6778    2.3126 H         1 <0>         0.0731
     57 H14         2.6304   -3.2407    2.8169 H         1 <0>         0.0511
     58 H15         0.4523   -3.8218    3.4319 H         1 <0>         0.0753
     59 H16         0.3841   -4.5700   -0.3844 H         1 <0>         0.0427
     60 H17        -6.0375    0.3284    3.1563 H         1 <0>         0.0450
     61 H18        -5.8542   -1.3328    3.7128 H         1 <0>         0.0406
     62 H19        -5.2988   -0.8789    2.0908 H         1 <0>         0.0274
     63 H20        -3.3028    0.8425    1.9049 H         1 <0>         0.0476
     64 H21        -4.1178    1.8926    3.0773 H         1 <0>         0.0170
     65 H22        -2.4708    1.3315    3.3922 H         1 <0>         0.0477
     66 H23        -5.2527   -2.2721   -2.1860 H         1 <0>         0.0814
     67 H24        -5.1328   -4.0165   -2.0862 H         1 <0>         0.0685
     68 H25        -1.9092    2.2808   -1.1025 H         1 <0>         0.1016
     69 H26        -1.0467    2.4234    0.4259 H         1 <0>         0.0660
     70 H27         1.1110    2.7323   -0.8028 H         1 <0>         0.0512
     71 H28         0.2685    2.6560   -2.3373 H         1 <0>         0.0454
     72 H29        -2.0302   -1.0518    4.0061 H         1 <0>         0.0575
     73 H30        -3.3514   -2.1846    4.2177 H         1 <0>         0.0743
     74 H31        -1.2027    4.5928   -1.7356 H         1 <0>         0.0662
     75 H32        -0.3220    4.7463   -0.2087 H         1 <0>         0.0622
     76 H33         1.7614    0.6251   -3.0928 H         1 <0>         0.0321
     77 H34         1.8289   -0.7905   -2.0281 H         1 <0>         0.0204
     78 H35        -2.3647   -1.1082    1.5019 H         1 <0>         0.0749
     79 H36        -6.3286   -2.4083    0.2569 H         1 <0>         0.0719
     80 H37        -4.1195    0.0762    4.7551 H         1 <0>         0.0609
     81 H38        -0.3978    0.3245   -1.8868 H         1 <0>         0.1063
     82 H39        -4.5782    5.6828    1.1306 H         1 <0>         0.4792
     83 H40        -4.2329    7.3536    0.8111 H         1 <0>         0.4819
     84 H41        -1.0966    6.7983   -0.9251 H         1 <0>         0.4802
     85 H42        -2.2244    8.0035   -0.3744 H         1 <0>         0.4826
     86 H43         0.8216    0.7626    0.7549 H         1 <0>         0.3101
     87 H44        -4.7231   -2.7191    2.1790 H         1 <0>         0.3087
     88 H45        -3.0238    3.9804    0.3791 H         1 <0>         0.4846
     89 H46       -11.4843   -4.4380   -2.8573 H         1 <0>         0.4194
     90 H47         1.8515   -6.8926    0.0654 H         1 <0>         0.4036
     91 H48         2.9636    1.7601   -1.6856 H         1 <0>         0.4114
     92 H49        -6.0303   -4.9121   -0.2823 H         1 <0>         0.3944
@<TRIPOS>BOND
     1    1    3 ar
     2    1    5 ar
     3    2    4 ar
     4    2    5 ar
     5    3    6 ar
     6    4    6 ar
     7    5   21 1
     8    6   40 1
     9    7   15 1
    10    7   34 am
    11    7   37 2
    12    8   27 1
    13    8   31 am
    14    8   38 2
    15    9   28 1
    16    9   35 am
    17    9   39 2
    18   10   32 1
    19   10   33 1
    20   10   36 1
    21   11   12 1
    22   11   16 1
    23   12   18 1
    24   13   15 1
    25   13   16 1
    26   14   17 1
    27   14   18 1
    28   15   31 1
    29   16   17 1
    30   17   31 1
    31   18   41 1
    32   19   29 1
    33   20   29 1
    34   21   28 1
    35   22   23 1
    36   22   25 1
    37   23   30 1
    38   24   27 1
    39   24   29 1
    40   25   36 1
    41   26   30 1
    42   26   42 1
    43   27   35 1
    44   28   43 1
    45   30   34 1
    46    1   44 1
    47    2   45 1
    48    3   46 1
    49    4   47 1
    50   11   48 1
    51   11   49 1
    52   12   50 1
    53   12   51 1
    54   13   52 1
    55   13   53 1
    56   14   54 1
    57   14   55 1
    58   15   56 1
    59   16   57 1
    60   17   58 1
    61   18   59 1
    62   19   60 1
    63   19   61 1
    64   19   62 1
    65   20   63 1
    66   20   64 1
    67   20   65 1
    68   21   66 1
    69   21   67 1
    70   22   68 1
    71   22   69 1
    72   23   70 1
    73   23   71 1
    74   24   72 1
    75   24   73 1
    76   25   74 1
    77   25   75 1
    78   26   76 1
    79   26   77 1
    80   27   78 1
    81   28   79 1
    82   29   80 1
    83   30   81 1
    84   32   82 1
    85   32   83 1
    86   33   84 1
    87   33   85 1
    88   34   86 1
    89   35   87 1
    90   36   88 1
    91   40   89 1
    92   41   90 1
    93   42   91 1
    94   43   92 1
@<TRIPOS>MOLECULE
1a2c_ligand_10
   92    94     0     0     0
SMALL
USER_CHARGES

mmff94s_NoEstat = 105.88
@<TRIPOS>ATOM
      1 C1         -8.6272   -2.8492   -1.4308 C.ar      1 <0>        -0.0708
      2 C2         -8.6280   -2.4747    0.9560 C.ar      1 <0>        -0.0872
      3 C3         -9.9370   -3.3232   -1.3568 C.ar      1 <0>        -0.2241
      4 C4         -9.9377   -2.9488    1.0300 C.ar      1 <0>        -0.1600
      5 C5         -7.9904   -2.4312   -0.2734 C.ar      1 <0>        -0.1356
      6 C6        -10.5923   -3.3731   -0.1264 C.ar      1 <0>         0.1290
      7 C7         -0.0512   -1.0561    0.2993 C.2       1 <0>         0.6664
      8 C8         -1.8469   -3.0457    2.1630 C.2       1 <0>         0.6651
      9 C9         -4.1811   -2.4610    0.1870 C.2       1 <0>         0.6454
     10 C10        -3.3611    4.6327   -3.0349 C.cat     1 <0>         0.6349
     11 C11         2.5186   -3.1911    0.6823 C.3       1 <0>        -0.0642
     12 C12         2.4580   -4.6414    0.2376 C.3       1 <0>        -0.0747
     13 C13         1.4874   -1.4827    2.2418 C.3       1 <0>        -0.0873
     14 C14         0.4946   -5.0934    1.7133 C.3       1 <0>        -0.1371
     15 C15         0.0412   -1.4176    1.7503 C.3       1 <0>         0.0360
     16 C16         1.8865   -2.9529    2.0632 C.3       1 <0>        -0.0720
     17 C17         0.5665   -3.7001    2.3454 C.3       1 <0>         0.1201
     18 C18         1.0248   -5.1525    0.2868 C.3       1 <0>         0.1453
     19 C19        -5.3726   -0.5418    3.1302 C.3       1 <0>        -0.0968
     20 C20        -3.4397    1.0389    2.9738 C.3       1 <0>        -0.0986
     21 C21        -6.5727   -1.9173   -0.3536 C.3       1 <0>        -0.0191
     22 C22        -1.8968    1.7896   -1.0188 C.3       1 <0>        -0.1009
     23 C23        -0.4337    2.0012   -1.4250 C.3       1 <0>        -0.0942
     24 C24        -2.9973   -1.3585    3.5851 C.3       1 <0>        -0.0988
     25 C25        -2.7062    3.0733   -1.1890 C.3       1 <0>         0.1966
     26 C26         1.9058    0.9774   -1.7696 C.3       1 <0>         0.1128
     27 C27        -2.7865   -1.8644    2.1628 C.3       1 <0>         0.0786
     28 C28        -5.5432   -3.0384   -0.1771 C.3       1 <0>         0.0744
     29 C29        -3.9969   -0.1898    3.6979 C.3       1 <0>        -0.0678
     30 C30         0.4555    0.7445   -1.3388 C.3       1 <0>         0.1065
     31 N1         -0.4979   -2.7598    1.9615 N.am      1 <0>        -0.4315
     32 N2         -3.3082    5.0008   -4.3753 N.pl3     1 <0>        -0.8671
     33 N3         -4.0986    5.4088   -2.1474 N.pl3     1 <0>        -0.8581
     34 N4          0.4455    0.1980   -0.0008 N.am      1 <0>        -0.5687
     35 N5         -3.9799   -2.3853    1.5634 N.am      1 <0>        -0.5746
     36 N6         -2.6823    3.4930   -2.5701 N.pl3     1 <0>        -0.7533
     37 O1         -0.5362   -1.8555   -0.4928 O.2       1 <0>        -0.5843
     38 O2         -2.2998   -4.1783    2.3409 O.2       1 <0>        -0.6812
     39 O3         -3.3708   -2.0954   -0.6616 O.2       1 <0>        -0.5788
     40 O4        -11.8709   -3.8342   -0.0545 O.3       1 <0>        -0.4938
     41 O5          0.9879   -6.5072   -0.1510 O.3       1 <0>        -0.6030
     42 O6          2.5087    1.9525   -0.9290 O.3       1 <0>        -0.5860
     43 O7         -5.4138   -3.7436   -1.4033 O.3       1 <0>        -0.6021
     44 H1         -8.1249   -2.8142   -2.3937 H         1 <0>         0.1412
     45 H2         -8.1259   -2.1460    1.8623 H         1 <0>         0.1451
     46 H3        -10.4414   -3.6521   -2.2611 H         1 <0>         0.1336
     47 H4        -10.4433   -2.9843    1.9914 H         1 <0>         0.1567
     48 H5          3.5627   -2.8549    0.7003 H         1 <0>         0.0649
     49 H6          2.0259   -2.5829   -0.0837 H         1 <0>         0.0476
     50 H7          2.8567   -4.7427   -0.7790 H         1 <0>         0.0641
     51 H8          3.1032   -5.2618    0.8729 H         1 <0>         0.0484
     52 H9          2.1569   -0.7868    1.7257 H         1 <0>         0.0596
     53 H10         1.5124   -1.2395    3.3116 H         1 <0>         0.0757
     54 H11         1.0921   -5.7802    2.3299 H         1 <0>         0.0782
     55 H12        -0.5175   -5.5090    1.7393 H         1 <0>         0.0812
     56 H13        -0.5378   -0.6778    2.3126 H         1 <0>         0.0731
     57 H14         2.6304   -3.2407    2.8169 H         1 <0>         0.0511
     58 H15         0.4523   -3.8218    3.4319 H         1 <0>         0.0753
     59 H16         0.3841   -4.5700   -0.3844 H         1 <0>         0.0427
     60 H17        -6.0375    0.3284    3.1563 H         1 <0>         0.0450
     61 H18        -5.8542   -1.3328    3.7128 H         1 <0>         0.0406
     62 H19        -5.2988   -0.8789    2.0908 H         1 <0>         0.0274
     63 H20        -3.3028    0.8425    1.9049 H         1 <0>         0.0476
     64 H21        -4.1178    1.8926    3.0773 H         1 <0>         0.0170
     65 H22        -2.4708    1.3315    3.3922 H         1 <0>         0.0477
     66 H23        -6.4251   -1.1465    0.4146 H         1 <0>         0.0814
     67 H24        -6.4443   -1.4079   -1.3169 H         1 <0>         0.0685
     68 H25        -2.3478    0.9988   -1.6296 H         1 <0>         0.1016
     69 H26        -1.9571    1.4582    0.0248 H         1 <0>         0.0660
     70 H27         0.0021    2.7844   -0.7898 H         1 <0>         0.0512
     71 H28        -0.4008    2.3932   -2.4497 H         1 <0>         0.0454
     72 H29        -2.0302   -1.0518    4.0061 H         1 <0>         0.0575
     73 H30        -3.3514   -2.1846    4.2177 H         1 <0>         0.0743
     74 H31        -2.2897    3.8707   -0.5646 H         1 <0>         0.0662
     75 H32        -3.7451    2.9157   -0.8815 H         1 <0>         0.0622
     76 H33         1.9749    1.3199   -2.8074 H         1 <0>         0.0321
     77 H34         2.4858    0.0519   -1.6791 H         1 <0>         0.0204
     78 H35        -2.3647   -1.1082    1.5019 H         1 <0>         0.0749
     79 H36        -5.8508   -3.7504    0.5980 H         1 <0>         0.0719
     80 H37        -4.1195    0.0762    4.7551 H         1 <0>         0.0609
     81 H38         0.0149    0.0012   -2.0158 H         1 <0>         0.1063
     82 H39        -2.7804    4.4652   -5.0593 H         1 <0>         0.4792
     83 H40        -3.7995    5.8263   -4.7102 H         1 <0>         0.4819
     84 H41        -4.1585    5.1685   -1.1609 H         1 <0>         0.4802
     85 H42        -4.5986    6.2369   -2.4619 H         1 <0>         0.4826
     86 H43         0.8216    0.7626    0.7549 H         1 <0>         0.3101
     87 H44        -4.7231   -2.7191    2.1790 H         1 <0>         0.3087
     88 H45        -2.1531    2.9563   -3.2681 H         1 <0>         0.4846
     89 H46       -12.0198   -4.5188   -0.7260 H         1 <0>         0.4194
     90 H47         1.8515   -6.8926    0.0654 H         1 <0>         0.4036
     91 H48         2.2238    2.8203   -1.2580 H         1 <0>         0.4114
     92 H49        -6.1819   -3.5045   -1.9474 H         1 <0>         0.3944
@<TRIPOS>BOND
     1    1    3 ar
     2    1    5 ar
     3    2    4 ar
     4    2    5 ar
     5    3    6 ar
     6    4    6 ar
     7    5   21 1
     8    6   40 1
     9    7   15 1
    10    7   34 am
    11    7   37 2
    12    8   27 1
    13    8   31 am
    14    8   38 2
    15    9   28 1
    16    9   35 am
    17    9   39 2
    18   10   32 1
    19   10   33 1
    20   10   36 1
    21   11   12 1
    22   11   16 1
    23   12   18 1
    24   13   15 1
    25   13   16 1
    26   14   17 1
    27   14   18 1
    28   15   31 1
    29   16   17 1
    30   17   31 1
    31   18   41 1
    32   19   29 1
    33   20   29 1
    34   21   28 1
    35   22   23 1
    36   22   25 1
    37   23   30 1
    38   24   27 1
    39   24   29 1
    40   25   36 1
    41   26   30 1
    42   26   42 1
    43   27   35 1
    44   28   43 1
    45   30   34 1
    46    1   44 1
    47    2   45 1
    48    3   46 1
    49    4   47 1
    50   11   48 1
    51   11   49 1
    52   12   50 1
    53   12   51 1
    54   13   52 1
    55   13   53 1
    56   14   54 1
    57   14   55 1
    58   15   56 1
    59   16   57 1
    60   17   58 1
    61   18   59 1
    62   19   60 1
    63   19   61 1
    64   19   62 1
    65   20   63 1
    66   20   64 1
    67   20   65 1
    68   21   66 1
    69   21   67 1
    70   22   68 1
    71   22   69 1
    72   23   70 1
    73   23   71 1
    74   24   72 1
    75   24   73 1
    76   25   74 1
    77   25   75 1
    78   26   76 1
    79   26   77 1
    80   27   78 1
    81   28   79 1
    82   29   80 1
    83   30   81 1
    84   32   82 1
    85   32   83 1
    86   33   84 1
    87   33   85 1
    88   34   86 1
    89   35   87 1
    90   36   88 1
    91   40   89 1
    92   41   90 1
    93   42   91 1
    94   43   92 1
@<TRIPOS>MOLECULE
1a2c_ligand_11
   92    94     0     0     0
SMALL
USER_CHARGES

mmff94s_NoEstat = 105.94
@<TRIPOS>ATOM
      1 C1         -7.9932   -1.0210   -1.1999 C.ar      1 <0>        -0.0708
      2 C2         -5.8259   -0.0100   -1.5432 C.ar      1 <0>        -0.0872
      3 C3         -8.5676    0.2459   -1.0959 C.ar      1 <0>        -0.2241
      4 C4         -6.4004    1.2568   -1.4392 C.ar      1 <0>        -0.1600
      5 C5         -6.6301   -1.1319   -1.4222 C.ar      1 <0>        -0.1356
      6 C6         -7.7712    1.3848   -1.2155 C.ar      1 <0>         0.1290
      7 C7         -0.0512   -1.0561    0.2993 C.2       1 <0>         0.6664
      8 C8         -1.8469   -3.0457    2.1630 C.2       1 <0>         0.6651
      9 C9         -4.1811   -2.4610    0.1870 C.2       1 <0>         0.6454
     10 C10         3.5897   -3.3158   -3.8636 C.cat     1 <0>         0.6349
     11 C11         2.5186   -3.1911    0.6823 C.3       1 <0>        -0.0642
     12 C12         2.4580   -4.6414    0.2376 C.3       1 <0>        -0.0747
     13 C13         1.4874   -1.4827    2.2418 C.3       1 <0>        -0.0873
     14 C14         0.4946   -5.0934    1.7133 C.3       1 <0>        -0.1371
     15 C15         0.0412   -1.4176    1.7503 C.3       1 <0>         0.0360
     16 C16         1.8865   -2.9529    2.0632 C.3       1 <0>        -0.0720
     17 C17         0.5665   -3.7001    2.3454 C.3       1 <0>         0.1201
     18 C18         1.0248   -5.1525    0.2868 C.3       1 <0>         0.1453
     19 C19        -5.3726   -0.5418    3.1302 C.3       1 <0>        -0.0968
     20 C20        -3.4397    1.0389    2.9738 C.3       1 <0>        -0.0986
     21 C21        -6.0083   -2.5034   -1.5355 C.3       1 <0>        -0.0191
     22 C22         2.8091   -0.2380   -1.8118 C.3       1 <0>        -0.1009
     23 C23         1.3524   -0.0970   -2.2688 C.3       1 <0>        -0.0942
     24 C24        -2.9973   -1.3585    3.5851 C.3       1 <0>        -0.0988
     25 C25         3.6273   -1.0396   -2.8217 C.3       1 <0>         0.1966
     26 C26        -0.9878    0.8875   -1.8280 C.3       1 <0>         0.1128
     27 C27        -2.7865   -1.8644    2.1628 C.3       1 <0>         0.0786
     28 C28        -5.5432   -3.0384   -0.1771 C.3       1 <0>         0.0744
     29 C29        -3.9969   -0.1898    3.6979 C.3       1 <0>        -0.0678
     30 C30         0.4555    0.7445   -1.3388 C.3       1 <0>         0.1065
     31 N1         -0.4979   -2.7598    1.9615 N.am      1 <0>        -0.4315
     32 N2          3.0132   -4.5761   -3.9816 N.pl3     1 <0>        -0.8671
     33 N3          4.7045   -3.0053   -4.6349 N.pl3     1 <0>        -0.8581
     34 N4          0.4455    0.1980   -0.0008 N.am      1 <0>        -0.5687
     35 N5         -3.9799   -2.3853    1.5634 N.am      1 <0>        -0.5746
     36 N6          3.0622   -2.3586   -2.9797 N.pl3     1 <0>        -0.7533
     37 O1         -0.5362   -1.8555   -0.4928 O.2       1 <0>        -0.5843
     38 O2         -2.2998   -4.1783    2.3409 O.2       1 <0>        -0.6812
     39 O3         -3.3708   -2.0954   -0.6616 O.2       1 <0>        -0.5788
     40 O4         -8.3321    2.6210   -1.1157 O.3       1 <0>        -0.4938
     41 O5          0.9879   -6.5072   -0.1510 O.3       1 <0>        -0.6030
     42 O6         -1.7287    1.6906   -0.9186 O.3       1 <0>        -0.5860
     43 O7         -5.4208   -4.4514   -0.2549 O.3       1 <0>        -0.6021
     44 H1         -8.6216   -1.9023   -1.1052 H         1 <0>         0.1412
     45 H2         -4.7569   -0.1001   -1.7178 H         1 <0>         0.1451
     46 H3         -9.6360    0.3389   -0.9219 H         1 <0>         0.1336
     47 H4         -5.7747    2.1405   -1.5342 H         1 <0>         0.1567
     48 H5          3.5627   -2.8549    0.7003 H         1 <0>         0.0649
     49 H6          2.0259   -2.5829   -0.0837 H         1 <0>         0.0476
     50 H7          2.8567   -4.7427   -0.7790 H         1 <0>         0.0641
     51 H8          3.1032   -5.2618    0.8729 H         1 <0>         0.0484
     52 H9          2.1569   -0.7868    1.7257 H         1 <0>         0.0596
     53 H10         1.5124   -1.2395    3.3116 H         1 <0>         0.0757
     54 H11         1.0921   -5.7802    2.3299 H         1 <0>         0.0782
     55 H12        -0.5175   -5.5090    1.7393 H         1 <0>         0.0812
     56 H13        -0.5378   -0.6778    2.3126 H         1 <0>         0.0731
     57 H14         2.6304   -3.2407    2.8169 H         1 <0>         0.0511
     58 H15         0.4523   -3.8218    3.4319 H         1 <0>         0.0753
     59 H16         0.3841   -4.5700   -0.3844 H         1 <0>         0.0427
     60 H17        -6.0375    0.3284    3.1563 H         1 <0>         0.0450
     61 H18        -5.8542   -1.3328    3.7128 H         1 <0>         0.0406
     62 H19        -5.2988   -0.8789    2.0908 H         1 <0>         0.0274
     63 H20        -3.3028    0.8425    1.9049 H         1 <0>         0.0476
     64 H21        -4.1178    1.8926    3.0773 H         1 <0>         0.0170
     65 H22        -2.4708    1.3315    3.3922 H         1 <0>         0.0477
     66 H23        -5.1607   -2.4579   -2.2324 H         1 <0>         0.0814
     67 H24        -6.7403   -3.1770   -1.9985 H         1 <0>         0.0685
     68 H25         3.2637    0.7519   -1.6883 H         1 <0>         0.1016
     69 H26         2.8542   -0.7324   -0.8340 H         1 <0>         0.0660
     70 H27         0.9126   -1.0986   -2.3693 H         1 <0>         0.0512
     71 H28         1.3348    0.3408   -3.2751 H         1 <0>         0.0454
     72 H29        -2.0302   -1.0518    4.0061 H         1 <0>         0.0575
     73 H30        -3.3514   -2.1846    4.2177 H         1 <0>         0.0743
     74 H31         4.6645   -1.1321   -2.4825 H         1 <0>         0.0662
     75 H32         3.6369   -0.5363   -3.7940 H         1 <0>         0.0622
     76 H33        -1.4861   -0.0829   -1.9233 H         1 <0>         0.0321
     77 H34        -1.0136    1.3790   -2.8073 H         1 <0>         0.0204
     78 H35        -2.3647   -1.1082    1.5019 H         1 <0>         0.0749
     79 H36        -6.2595   -2.7988    0.6177 H         1 <0>         0.0719
     80 H37        -4.1195    0.0762    4.7551 H         1 <0>         0.0609
     81 H38         0.9010    1.7469   -1.2960 H         1 <0>         0.1063
     82 H39         2.1991   -4.8480   -3.4369 H         1 <0>         0.4792
     83 H40         3.3965   -5.2682   -4.6214 H         1 <0>         0.4819
     84 H41         5.1508   -2.0934   -4.5734 H         1 <0>         0.4802
     85 H42         5.1022   -3.6820   -5.2818 H         1 <0>         0.4826
     86 H43         0.8216    0.7626    0.7549 H         1 <0>         0.3101
     87 H44        -4.7231   -2.7191    2.1790 H         1 <0>         0.3087
     88 H45         2.2384   -2.6406   -2.4346 H         1 <0>         0.4846
     89 H46        -9.0832    2.6009   -0.5014 H         1 <0>         0.4194
     90 H47         1.8515   -6.8926    0.0654 H         1 <0>         0.4036
     91 H48        -1.9874    1.1133   -0.1822 H         1 <0>         0.4114
     92 H49        -5.9013   -4.7317   -1.0509 H         1 <0>         0.3944
@<TRIPOS>BOND
     1    1    3 ar
     2    1    5 ar
     3    2    4 ar
     4    2    5 ar
     5    3    6 ar
     6    4    6 ar
     7    5   21 1
     8    6   40 1
     9    7   15 1
    10    7   34 am
    11    7   37 2
    12    8   27 1
    13    8   31 am
    14    8   38 2
    15    9   28 1
    16    9   35 am
    17    9   39 2
    18   10   32 1
    19   10   33 1
    20   10   36 1
    21   11   12 1
    22   11   16 1
    23   12   18 1
    24   13   15 1
    25   13   16 1
    26   14   17 1
    27   14   18 1
    28   15   31 1
    29   16   17 1
    30   17   31 1
    31   18   41 1
    32   19   29 1
    33   20   29 1
    34   21   28 1
    35   22   23 1
    36   22   25 1
    37   23   30 1
    38   24   27 1
    39   24   29 1
    40   25   36 1
    41   26   30 1
    42   26   42 1
    43   27   35 1
    44   28   43 1
    45   30   34 1
    46    1   44 1
    47    2   45 1
    48    3   46 1
    49    4   47 1
    50   11   48 1
    51   11   49 1
    52   12   50 1
    53   12   51 1
    54   13   52 1
    55   13   53 1
    56   14   54 1
    57   14   55 1
    58   15   56 1
    59   16   57 1
    60   17   58 1
    61   18   59 1
    62   19   60 1
    63   19   61 1
    64   19   62 1
    65   20   63 1
    66   20   64 1
    67   20   65 1
    68   21   66 1
    69   21   67 1
    70   22   68 1
    71   22   69 1
    72   23   70 1
    73   23   71 1
    74   24   72 1
    75   24   73 1
    76   25   74 1
    77   25   75 1
    78   26   76 1
    79   26   77 1
    80   27   78 1
    81   28   79 1
    82   29   80 1
    83   30   81 1
    84   32   82 1
    85   32   83 1
    86   33   84 1
    87   33   85 1
    88   34   86 1
    89   35   87 1
    90   36   88 1
    91   40   89 1
    92   41   90 1
    93   42   91 1
    94   43   92 1
@<TRIPOS>MOLECULE
1a2c_ligand_12
   92    94     0     0     0
SMALL
USER_CHARGES

mmff94s_NoEstat = 105.95
@<TRIPOS>ATOM
      1 C1         -8.6272   -2.8492   -1.4308 C.ar      1 <0>        -0.0708
      2 C2         -8.6280   -2.4747    0.9560 C.ar      1 <0>        -0.0872
      3 C3         -9.9370   -3.3232   -1.3568 C.ar      1 <0>        -0.2241
      4 C4         -9.9377   -2.9488    1.0300 C.ar      1 <0>        -0.1600
      5 C5         -7.9904   -2.4312   -0.2734 C.ar      1 <0>        -0.1356
      6 C6        -10.5923   -3.3731   -0.1264 C.ar      1 <0>         0.1290
      7 C7         -0.0512   -1.0561    0.2993 C.2       1 <0>         0.6664
      8 C8         -1.8469   -3.0457    2.1630 C.2       1 <0>         0.6651
      9 C9         -4.1811   -2.4610    0.1870 C.2       1 <0>         0.6454
     10 C10        -3.3294    2.0808   -3.5565 C.cat     1 <0>         0.6349
     11 C11         2.5186   -3.1911    0.6823 C.3       1 <0>        -0.0642
     12 C12         2.4580   -4.6414    0.2376 C.3       1 <0>        -0.0747
     13 C13         1.4874   -1.4827    2.2418 C.3       1 <0>        -0.0873
     14 C14         0.4946   -5.0934    1.7133 C.3       1 <0>        -0.1371
     15 C15         0.0412   -1.4176    1.7503 C.3       1 <0>         0.0360
     16 C16         1.8865   -2.9529    2.0632 C.3       1 <0>        -0.0720
     17 C17         0.5665   -3.7001    2.3454 C.3       1 <0>         0.1201
     18 C18         1.0248   -5.1525    0.2868 C.3       1 <0>         0.1453
     19 C19        -5.3726   -0.5418    3.1302 C.3       1 <0>        -0.0968
     20 C20        -3.4397    1.0389    2.9738 C.3       1 <0>        -0.0986
     21 C21        -6.5727   -1.9173   -0.3536 C.3       1 <0>        -0.0191
     22 C22        -1.0374    2.7415   -0.6235 C.3       1 <0>        -0.1009
     23 C23         0.2513    2.2726   -1.3090 C.3       1 <0>        -0.0942
     24 C24        -2.9973   -1.3585    3.5851 C.3       1 <0>        -0.0988
     25 C25        -2.2684    2.1304   -1.2894 C.3       1 <0>         0.1966
     26 C26         1.7383    0.3016   -2.0469 C.3       1 <0>         0.1128
     27 C27        -2.7865   -1.8644    2.1628 C.3       1 <0>         0.0786
     28 C28        -5.5432   -3.0384   -0.1771 C.3       1 <0>         0.0744
     29 C29        -3.9969   -0.1898    3.6979 C.3       1 <0>        -0.0678
     30 C30         0.4555    0.7445   -1.3388 C.3       1 <0>         0.1065
     31 N1         -0.4979   -2.7598    1.9615 N.am      1 <0>        -0.4315
     32 N2         -3.3390    2.4766   -4.8899 N.pl3     1 <0>        -0.8671
     33 N3         -4.3382    1.2447   -3.0902 N.pl3     1 <0>        -0.8581
     34 N4          0.4455    0.1980   -0.0008 N.am      1 <0>        -0.5687
     35 N5         -3.9799   -2.3853    1.5634 N.am      1 <0>        -0.5746
     36 N6         -2.3186    2.5130   -2.6805 N.pl3     1 <0>        -0.7533
     37 O1         -0.5362   -1.8555   -0.4928 O.2       1 <0>        -0.5843
     38 O2         -2.2998   -4.1783    2.3409 O.2       1 <0>        -0.6812
     39 O3         -3.3708   -2.0954   -0.6616 O.2       1 <0>        -0.5788
     40 O4        -11.8709   -3.8342   -0.0545 O.3       1 <0>        -0.4938
     41 O5          0.9879   -6.5072   -0.1510 O.3       1 <0>        -0.6030
     42 O6          2.8703    0.8436   -1.3793 O.3       1 <0>        -0.5860
     43 O7         -5.4138   -3.7436   -1.4033 O.3       1 <0>        -0.6021
     44 H1         -8.1249   -2.8142   -2.3937 H         1 <0>         0.1412
     45 H2         -8.1259   -2.1460    1.8623 H         1 <0>         0.1451
     46 H3        -10.4414   -3.6521   -2.2611 H         1 <0>         0.1336
     47 H4        -10.4433   -2.9843    1.9914 H         1 <0>         0.1567
     48 H5          3.5627   -2.8549    0.7003 H         1 <0>         0.0649
     49 H6          2.0259   -2.5829   -0.0837 H         1 <0>         0.0476
     50 H7          2.8567   -4.7427   -0.7790 H         1 <0>         0.0641
     51 H8          3.1032   -5.2618    0.8729 H         1 <0>         0.0484
     52 H9          2.1569   -0.7868    1.7257 H         1 <0>         0.0596
     53 H10         1.5124   -1.2395    3.3116 H         1 <0>         0.0757
     54 H11         1.0921   -5.7802    2.3299 H         1 <0>         0.0782
     55 H12        -0.5175   -5.5090    1.7393 H         1 <0>         0.0812
     56 H13        -0.5378   -0.6778    2.3126 H         1 <0>         0.0731
     57 H14         2.6304   -3.2407    2.8169 H         1 <0>         0.0511
     58 H15         0.4523   -3.8218    3.4319 H         1 <0>         0.0753
     59 H16         0.3841   -4.5700   -0.3844 H         1 <0>         0.0427
     60 H17        -6.0375    0.3284    3.1563 H         1 <0>         0.0450
     61 H18        -5.8542   -1.3328    3.7128 H         1 <0>         0.0406
     62 H19        -5.2988   -0.8789    2.0908 H         1 <0>         0.0274
     63 H20        -3.3028    0.8425    1.9049 H         1 <0>         0.0476
     64 H21        -4.1178    1.8926    3.0773 H         1 <0>         0.0170
     65 H22        -2.4708    1.3315    3.3922 H         1 <0>         0.0477
     66 H23        -6.4251   -1.1465    0.4146 H         1 <0>         0.0814
     67 H24        -6.4443   -1.4079   -1.3169 H         1 <0>         0.0685
     68 H25        -1.0263    2.4588    0.4356 H         1 <0>         0.1016
     69 H26        -1.1105    3.8350   -0.6596 H         1 <0>         0.0660
     70 H27         1.1110    2.7323   -0.8028 H         1 <0>         0.0512
     71 H28         0.2685    2.6560   -2.3373 H         1 <0>         0.0454
     72 H29        -2.0302   -1.0518    4.0061 H         1 <0>         0.0575
     73 H30        -3.3514   -2.1846    4.2177 H         1 <0>         0.0743
     74 H31        -3.1804    2.4738   -0.7898 H         1 <0>         0.0662
     75 H32        -2.2399    1.0381   -1.2201 H         1 <0>         0.0622
     76 H33         1.7614    0.6251   -3.0928 H         1 <0>         0.0321
     77 H34         1.8289   -0.7905   -2.0281 H         1 <0>         0.0204
     78 H35        -2.3647   -1.1082    1.5019 H         1 <0>         0.0749
     79 H36        -5.8508   -3.7504    0.5980 H         1 <0>         0.0719
     80 H37        -4.1195    0.0762    4.7551 H         1 <0>         0.0609
     81 H38        -0.3978    0.3245   -1.8868 H         1 <0>         0.1063
     82 H39        -2.6237    3.0881   -5.2742 H         1 <0>         0.4792
     83 H40        -4.0716    2.1635   -5.5226 H         1 <0>         0.4819
     84 H41        -4.3615    0.9362   -2.1213 H         1 <0>         0.4802
     85 H42        -5.0788    0.9188   -3.7066 H         1 <0>         0.4826
     86 H43         0.8216    0.7626    0.7549 H         1 <0>         0.3101
     87 H44        -4.7231   -2.7191    2.1790 H         1 <0>         0.3087
     88 H45        -1.5986    3.1289   -3.0773 H         1 <0>         0.4846
     89 H46       -12.0198   -4.5188   -0.7260 H         1 <0>         0.4194
     90 H47         1.8515   -6.8926    0.0654 H         1 <0>         0.4036
     91 H48         2.9636    1.7601   -1.6856 H         1 <0>         0.4114
     92 H49        -6.1819   -3.5045   -1.9474 H         1 <0>         0.3944
@<TRIPOS>BOND
     1    1    3 ar
     2    1    5 ar
     3    2    4 ar
     4    2    5 ar
     5    3    6 ar
     6    4    6 ar
     7    5   21 1
     8    6   40 1
     9    7   15 1
    10    7   34 am
    11    7   37 2
    12    8   27 1
    13    8   31 am
    14    8   38 2
    15    9   28 1
    16    9   35 am
    17    9   39 2
    18   10   32 1
    19   10   33 1
    20   10   36 1
    21   11   12 1
    22   11   16 1
    23   12   18 1
    24   13   15 1
    25   13   16 1
    26   14   17 1
    27   14   18 1
    28   15   31 1
    29   16   17 1
    30   17   31 1
    31   18   41 1
    32   19   29 1
    33   20   29 1
    34   21   28 1
    35   22   23 1
    36   22   25 1
    37   23   30 1
    38   24   27 1
    39   24   29 1
    40   25   36 1
    41   26   30 1
    42   26   42 1
    43   27   35 1
    44   28   43 1
    45   30   34 1
    46    1   44 1
    47    2   45 1
    48    3   46 1
    49    4   47 1
    50   11   48 1
    51   11   49 1
    52   12   50 1
    53   12   51 1
    54   13   52 1
    55   13   53 1
    56   14   54 1
    57   14   55 1
    58   15   56 1
    59   16   57 1
    60   17   58 1
    61   18   59 1
    62   19   60 1
    63   19   61 1
    64   19   62 1
    65   20   63 1
    66   20   64 1
    67   20   65 1
    68   21   66 1
    69   21   67 1
    70   22   68 1
    71   22   69 1
    72   23   70 1
    73   23   71 1
    74   24   72 1
    75   24   73 1
    76   25   74 1
    77   25   75 1
    78   26   76 1
    79   26   77 1
    80   27   78 1
    81   28   79 1
    82   29   80 1
    83   30   81 1
    84   32   82 1
    85   32   83 1
    86   33   84 1
    87   33   85 1
    88   34   86 1
    89   35   87 1
    90   36   88 1
    91   40   89 1
    92   41   90 1
    93   42   91 1
    94   43   92 1
@<TRIPOS>MOLECULE
1a2c_ligand_13
   92    94     0     0     0
SMALL
USER_CHARGES

mmff94s_NoEstat = 105.97
@<TRIPOS>ATOM
      1 C1         -8.6272   -2.8492   -1.4308 C.ar      1 <0>        -0.0708
      2 C2         -8.6280   -2.4747    0.9560 C.ar      1 <0>        -0.0872
      3 C3         -9.9370   -3.3232   -1.3568 C.ar      1 <0>        -0.2241
      4 C4         -9.9377   -2.9488    1.0300 C.ar      1 <0>        -0.1600
      5 C5         -7.9904   -2.4312   -0.2734 C.ar      1 <0>        -0.1356
      6 C6        -10.5923   -3.3731   -0.1264 C.ar      1 <0>         0.1290
      7 C7         -0.0512   -1.0561    0.2993 C.2       1 <0>         0.6664
      8 C8         -1.8469   -3.0457    2.1630 C.2       1 <0>         0.6651
      9 C9         -4.1811   -2.4610    0.1870 C.2       1 <0>         0.6454
     10 C10         3.5897   -3.3158   -3.8636 C.cat     1 <0>         0.6349
     11 C11         2.5186   -3.1911    0.6823 C.3       1 <0>        -0.0642
     12 C12         2.4580   -4.6414    0.2376 C.3       1 <0>        -0.0747
     13 C13         1.4874   -1.4827    2.2418 C.3       1 <0>        -0.0873
     14 C14         0.4946   -5.0934    1.7133 C.3       1 <0>        -0.1371
     15 C15         0.0412   -1.4176    1.7503 C.3       1 <0>         0.0360
     16 C16         1.8865   -2.9529    2.0632 C.3       1 <0>        -0.0720
     17 C17         0.5665   -3.7001    2.3454 C.3       1 <0>         0.1201
     18 C18         1.0248   -5.1525    0.2868 C.3       1 <0>         0.1453
     19 C19        -5.3726   -0.5418    3.1302 C.3       1 <0>        -0.0968
     20 C20        -3.4397    1.0389    2.9738 C.3       1 <0>        -0.0986
     21 C21        -6.5727   -1.9173   -0.3536 C.3       1 <0>        -0.0191
     22 C22         2.8091   -0.2380   -1.8118 C.3       1 <0>        -0.1009
     23 C23         1.3524   -0.0970   -2.2688 C.3       1 <0>        -0.0942
     24 C24        -2.9973   -1.3585    3.5851 C.3       1 <0>        -0.0988
     25 C25         3.6273   -1.0396   -2.8217 C.3       1 <0>         0.1966
     26 C26        -0.9878    0.8875   -1.8280 C.3       1 <0>         0.1128
     27 C27        -2.7865   -1.8644    2.1628 C.3       1 <0>         0.0786
     28 C28        -5.5432   -3.0384   -0.1771 C.3       1 <0>         0.0744
     29 C29        -3.9969   -0.1898    3.6979 C.3       1 <0>        -0.0678
     30 C30         0.4555    0.7445   -1.3388 C.3       1 <0>         0.1065
     31 N1         -0.4979   -2.7598    1.9615 N.am      1 <0>        -0.4315
     32 N2          3.0132   -4.5761   -3.9816 N.pl3     1 <0>        -0.8671
     33 N3          4.7045   -3.0053   -4.6349 N.pl3     1 <0>        -0.8581
     34 N4          0.4455    0.1980   -0.0008 N.am      1 <0>        -0.5687
     35 N5         -3.9799   -2.3853    1.5634 N.am      1 <0>        -0.5746
     36 N6          3.0622   -2.3586   -2.9797 N.pl3     1 <0>        -0.7533
     37 O1         -0.5362   -1.8555   -0.4928 O.2       1 <0>        -0.5843
     38 O2         -2.2998   -4.1783    2.3409 O.2       1 <0>        -0.6812
     39 O3         -3.3708   -2.0954   -0.6616 O.2       1 <0>        -0.5788
     40 O4        -11.8709   -3.8342   -0.0545 O.3       1 <0>        -0.4938
     41 O5          0.9879   -6.5072   -0.1510 O.3       1 <0>        -0.6030
     42 O6         -1.7287    1.6906   -0.9186 O.3       1 <0>        -0.5860
     43 O7         -5.4138   -3.7436   -1.4033 O.3       1 <0>        -0.6021
     44 H1         -8.1249   -2.8142   -2.3937 H         1 <0>         0.1412
     45 H2         -8.1259   -2.1460    1.8623 H         1 <0>         0.1451
     46 H3        -10.4414   -3.6521   -2.2611 H         1 <0>         0.1336
     47 H4        -10.4433   -2.9843    1.9914 H         1 <0>         0.1567
     48 H5          3.5627   -2.8549    0.7003 H         1 <0>         0.0649
     49 H6          2.0259   -2.5829   -0.0837 H         1 <0>         0.0476
     50 H7          2.8567   -4.7427   -0.7790 H         1 <0>         0.0641
     51 H8          3.1032   -5.2618    0.8729 H         1 <0>         0.0484
     52 H9          2.1569   -0.7868    1.7257 H         1 <0>         0.0596
     53 H10         1.5124   -1.2395    3.3116 H         1 <0>         0.0757
     54 H11         1.0921   -5.7802    2.3299 H         1 <0>         0.0782
     55 H12        -0.5175   -5.5090    1.7393 H         1 <0>         0.0812
     56 H13        -0.5378   -0.6778    2.3126 H         1 <0>         0.0731
     57 H14         2.6304   -3.2407    2.8169 H         1 <0>         0.0511
     58 H15         0.4523   -3.8218    3.4319 H         1 <0>         0.0753
     59 H16         0.3841   -4.5700   -0.3844 H         1 <0>         0.0427
     60 H17        -6.0375    0.3284    3.1563 H         1 <0>         0.0450
     61 H18        -5.8542   -1.3328    3.7128 H         1 <0>         0.0406
     62 H19        -5.2988   -0.8789    2.0908 H         1 <0>         0.0274
     63 H20        -3.3028    0.8425    1.9049 H         1 <0>         0.0476
     64 H21        -4.1178    1.8926    3.0773 H         1 <0>         0.0170
     65 H22        -2.4708    1.3315    3.3922 H         1 <0>         0.0477
     66 H23        -6.4251   -1.1465    0.4146 H         1 <0>         0.0814
     67 H24        -6.4443   -1.4079   -1.3169 H         1 <0>         0.0685
     68 H25         3.2637    0.7519   -1.6883 H         1 <0>         0.1016
     69 H26         2.8542   -0.7324   -0.8340 H         1 <0>         0.0660
     70 H27         0.9126   -1.0986   -2.3693 H         1 <0>         0.0512
     71 H28         1.3348    0.3408   -3.2751 H         1 <0>         0.0454
     72 H29        -2.0302   -1.0518    4.0061 H         1 <0>         0.0575
     73 H30        -3.3514   -2.1846    4.2177 H         1 <0>         0.0743
     74 H31         4.6645   -1.1321   -2.4825 H         1 <0>         0.0662
     75 H32         3.6369   -0.5363   -3.7940 H         1 <0>         0.0622
     76 H33        -1.4861   -0.0829   -1.9233 H         1 <0>         0.0321
     77 H34        -1.0136    1.3790   -2.8073 H         1 <0>         0.0204
     78 H35        -2.3647   -1.1082    1.5019 H         1 <0>         0.0749
     79 H36        -5.8508   -3.7504    0.5980 H         1 <0>         0.0719
     80 H37        -4.1195    0.0762    4.7551 H         1 <0>         0.0609
     81 H38         0.9010    1.7469   -1.2960 H         1 <0>         0.1063
     82 H39         2.1991   -4.8480   -3.4369 H         1 <0>         0.4792
     83 H40         3.3965   -5.2682   -4.6214 H         1 <0>         0.4819
     84 H41         5.1508   -2.0934   -4.5734 H         1 <0>         0.4802
     85 H42         5.1022   -3.6820   -5.2818 H         1 <0>         0.4826
     86 H43         0.8216    0.7626    0.7549 H         1 <0>         0.3101
     87 H44        -4.7231   -2.7191    2.1790 H         1 <0>         0.3087
     88 H45         2.2384   -2.6406   -2.4346 H         1 <0>         0.4846
     89 H46       -12.0198   -4.5188   -0.7260 H         1 <0>         0.4194
     90 H47         1.8515   -6.8926    0.0654 H         1 <0>         0.4036
     91 H48        -1.9874    1.1133   -0.1822 H         1 <0>         0.4114
     92 H49        -6.1819   -3.5045   -1.9474 H         1 <0>         0.3944
@<TRIPOS>BOND
     1    1    3 ar
     2    1    5 ar
     3    2    4 ar
     4    2    5 ar
     5    3    6 ar
     6    4    6 ar
     7    5   21 1
     8    6   40 1
     9    7   15 1
    10    7   34 am
    11    7   37 2
    12    8   27 1
    13    8   31 am
    14    8   38 2
    15    9   28 1
    16    9   35 am
    17    9   39 2
    18   10   32 1
    19   10   33 1
    20   10   36 1
    21   11   12 1
    22   11   16 1
    23   12   18 1
    24   13   15 1
    25   13   16 1
    26   14   17 1
    27   14   18 1
    28   15   31 1
    29   16   17 1
    30   17   31 1
    31   18   41 1
    32   19   29 1
    33   20   29 1
    34   21   28 1
    35   22   23 1
    36   22   25 1
    37   23   30 1
    38   24   27 1
    39   24   29 1
    40   25   36 1
    41   26   30 1
    42   26   42 1
    43   27   35 1
    44   28   43 1
    45   30   34 1
    46    1   44 1
    47    2   45 1
    48    3   46 1
    49    4   47 1
    50   11   48 1
    51   11   49 1
    52   12   50 1
    53   12   51 1
    54   13   52 1
    55   13   53 1
    56   14   54 1
    57   14   55 1
    58   15   56 1
    59   16   57 1
    60   17   58 1
    61   18   59 1
    62   19   60 1
    63   19   61 1
    64   19   62 1
    65   20   63 1
    66   20   64 1
    67   20   65 1
    68   21   66 1
    69   21   67 1
    70   22   68 1
    71   22   69 1
    72   23   70 1
    73   23   71 1
    74   24   72 1
    75   24   73 1
    76   25   74 1
    77   25   75 1
    78   26   76 1
    79   26   77 1
    80   27   78 1
    81   28   79 1
    82   29   80 1
    83   30   81 1
    84   32   82 1
    85   32   83 1
    86   33   84 1
    87   33   85 1
    88   34   86 1
    89   35   87 1
    90   36   88 1
    91   40   89 1
    92   41   90 1
    93   42   91 1
    94   43   92 1
@<TRIPOS>MOLECULE
1a2c_ligand_14
   92    94     0     0     0
SMALL
USER_CHARGES

mmff94s_NoEstat = 106.01
@<TRIPOS>ATOM
      1 C1         -7.9932   -1.0210   -1.1999 C.ar      1 <0>        -0.0708
      2 C2         -5.8259   -0.0100   -1.5432 C.ar      1 <0>        -0.0872
      3 C3         -8.5676    0.2459   -1.0959 C.ar      1 <0>        -0.2241
      4 C4         -6.4004    1.2568   -1.4392 C.ar      1 <0>        -0.1600
      5 C5         -6.6301   -1.1319   -1.4222 C.ar      1 <0>        -0.1356
      6 C6         -7.7712    1.3848   -1.2155 C.ar      1 <0>         0.1290
      7 C7         -0.0512   -1.0561    0.2993 C.2       1 <0>         0.6664
      8 C8         -1.8469   -3.0457    2.1630 C.2       1 <0>         0.6651
      9 C9         -4.1811   -2.4610    0.1870 C.2       1 <0>         0.6454
     10 C10        -3.5369    3.9433   -5.1013 C.cat     1 <0>         0.6349
     11 C11         2.5186   -3.1911    0.6823 C.3       1 <0>        -0.0642
     12 C12         2.4580   -4.6414    0.2376 C.3       1 <0>        -0.0747
     13 C13         1.4874   -1.4827    2.2418 C.3       1 <0>        -0.0873
     14 C14         0.4946   -5.0934    1.7133 C.3       1 <0>        -0.1371
     15 C15         0.0412   -1.4176    1.7503 C.3       1 <0>         0.0360
     16 C16         1.8865   -2.9529    2.0632 C.3       1 <0>        -0.0720
     17 C17         0.5665   -3.7001    2.3454 C.3       1 <0>         0.1201
     18 C18         1.0248   -5.1525    0.2868 C.3       1 <0>         0.1453
     19 C19        -5.3726   -0.5418    3.1302 C.3       1 <0>        -0.0968
     20 C20        -3.4397    1.0389    2.9738 C.3       1 <0>        -0.0986
     21 C21        -6.0083   -2.5034   -1.5355 C.3       1 <0>        -0.0191
     22 C22        -0.9951    2.0137   -3.0747 C.3       1 <0>        -0.1009
     23 C23        -0.8794    1.4488   -1.6540 C.3       1 <0>        -0.0942
     24 C24        -2.9973   -1.3585    3.5851 C.3       1 <0>        -0.0988
     25 C25        -2.3255    2.7368   -3.2725 C.3       1 <0>         0.1966
     26 C26         1.6856    1.6412   -1.5001 C.3       1 <0>         0.1128
     27 C27        -2.7865   -1.8644    2.1628 C.3       1 <0>         0.0786
     28 C28        -5.5432   -3.0384   -0.1771 C.3       1 <0>         0.0744
     29 C29        -3.9969   -0.1898    3.6979 C.3       1 <0>        -0.0678
     30 C30         0.4555    0.7445   -1.3388 C.3       1 <0>         0.1065
     31 N1         -0.4979   -2.7598    1.9615 N.am      1 <0>        -0.4315
     32 N2         -3.5770    4.4221   -6.4067 N.pl3     1 <0>        -0.8671
     33 N3         -4.6286    4.1576   -4.2668 N.pl3     1 <0>        -0.8581
     34 N4          0.4455    0.1980   -0.0008 N.am      1 <0>        -0.5687
     35 N5         -3.9799   -2.3853    1.5634 N.am      1 <0>        -0.5746
     36 N6         -2.4134    3.2499   -4.6190 N.pl3     1 <0>        -0.7533
     37 O1         -0.5362   -1.8555   -0.4928 O.2       1 <0>        -0.5843
     38 O2         -2.2998   -4.1783    2.3409 O.2       1 <0>        -0.6812
     39 O3         -3.3708   -2.0954   -0.6616 O.2       1 <0>        -0.5788
     40 O4         -8.3321    2.6210   -1.1157 O.3       1 <0>        -0.4938
     41 O5          0.9879   -6.5072   -0.1510 O.3       1 <0>        -0.6030
     42 O6          1.5971    2.7470   -0.6113 O.3       1 <0>        -0.5860
     43 O7         -5.4208   -4.4514   -0.2549 O.3       1 <0>        -0.6021
     44 H1         -8.6216   -1.9023   -1.1052 H         1 <0>         0.1412
     45 H2         -4.7569   -0.1001   -1.7178 H         1 <0>         0.1451
     46 H3         -9.6360    0.3389   -0.9219 H         1 <0>         0.1336
     47 H4         -5.7747    2.1405   -1.5342 H         1 <0>         0.1567
     48 H5          3.5627   -2.8549    0.7003 H         1 <0>         0.0649
     49 H6          2.0259   -2.5829   -0.0837 H         1 <0>         0.0476
     50 H7          2.8567   -4.7427   -0.7790 H         1 <0>         0.0641
     51 H8          3.1032   -5.2618    0.8729 H         1 <0>         0.0484
     52 H9          2.1569   -0.7868    1.7257 H         1 <0>         0.0596
     53 H10         1.5124   -1.2395    3.3116 H         1 <0>         0.0757
     54 H11         1.0921   -5.7802    2.3299 H         1 <0>         0.0782
     55 H12        -0.5175   -5.5090    1.7393 H         1 <0>         0.0812
     56 H13        -0.5378   -0.6778    2.3126 H         1 <0>         0.0731
     57 H14         2.6304   -3.2407    2.8169 H         1 <0>         0.0511
     58 H15         0.4523   -3.8218    3.4319 H         1 <0>         0.0753
     59 H16         0.3841   -4.5700   -0.3844 H         1 <0>         0.0427
     60 H17        -6.0375    0.3284    3.1563 H         1 <0>         0.0450
     61 H18        -5.8542   -1.3328    3.7128 H         1 <0>         0.0406
     62 H19        -5.2988   -0.8789    2.0908 H         1 <0>         0.0274
     63 H20        -3.3028    0.8425    1.9049 H         1 <0>         0.0476
     64 H21        -4.1178    1.8926    3.0773 H         1 <0>         0.0170
     65 H22        -2.4708    1.3315    3.3922 H         1 <0>         0.0477
     66 H23        -5.1607   -2.4579   -2.2324 H         1 <0>         0.0814
     67 H24        -6.7403   -3.1770   -1.9985 H         1 <0>         0.0685
     68 H25        -0.1747    2.7139   -3.2707 H         1 <0>         0.1016
     69 H26        -0.9072    1.2071   -3.8124 H         1 <0>         0.0660
     70 H27        -1.7000    0.7382   -1.4859 H         1 <0>         0.0512
     71 H28        -1.0340    2.2618   -0.9330 H         1 <0>         0.0454
     72 H29        -2.0302   -1.0518    4.0061 H         1 <0>         0.0575
     73 H30        -3.3514   -2.1846    4.2177 H         1 <0>         0.0743
     74 H31        -2.4148    3.5682   -2.5653 H         1 <0>         0.0662
     75 H32        -3.1633    2.0548   -3.0947 H         1 <0>         0.0622
     76 H33         1.7842    2.0214   -2.5223 H         1 <0>         0.0321
     77 H34         2.5988    1.0866   -1.2555 H         1 <0>         0.0204
     78 H35        -2.3647   -1.1082    1.5019 H         1 <0>         0.0749
     79 H36        -6.2595   -2.7988    0.6177 H         1 <0>         0.0719
     80 H37        -4.1195    0.0762    4.7551 H         1 <0>         0.0609
     81 H38         0.5463   -0.0881   -2.0483 H         1 <0>         0.1063
     82 H39        -2.8022    4.2908   -7.0514 H         1 <0>         0.4792
     83 H40        -4.3907    4.9244   -6.7542 H         1 <0>         0.4819
     84 H41        -4.6325    3.8212   -3.3069 H         1 <0>         0.4802
     85 H42        -5.4525    4.6557   -4.5950 H         1 <0>         0.4826
     86 H43         0.8216    0.7626    0.7549 H         1 <0>         0.3101
     87 H44        -4.7231   -2.7191    2.1790 H         1 <0>         0.3087
     88 H45        -1.6358    3.1197   -5.2774 H         1 <0>         0.4846
     89 H46        -9.0832    2.6009   -0.5014 H         1 <0>         0.4194
     90 H47         1.8515   -6.8926    0.0654 H         1 <0>         0.4036
     91 H48         1.0115    3.3975   -1.0313 H         1 <0>         0.4114
     92 H49        -5.9013   -4.7317   -1.0509 H         1 <0>         0.3944
@<TRIPOS>BOND
     1    1    3 ar
     2    1    5 ar
     3    2    4 ar
     4    2    5 ar
     5    3    6 ar
     6    4    6 ar
     7    5   21 1
     8    6   40 1
     9    7   15 1
    10    7   34 am
    11    7   37 2
    12    8   27 1
    13    8   31 am
    14    8   38 2
    15    9   28 1
    16    9   35 am
    17    9   39 2
    18   10   32 1
    19   10   33 1
    20   10   36 1
    21   11   12 1
    22   11   16 1
    23   12   18 1
    24   13   15 1
    25   13   16 1
    26   14   17 1
    27   14   18 1
    28   15   31 1
    29   16   17 1
    30   17   31 1
    31   18   41 1
    32   19   29 1
    33   20   29 1
    34   21   28 1
    35   22   23 1
    36   22   25 1
    37   23   30 1
    38   24   27 1
    39   24   29 1
    40   25   36 1
    41   26   30 1
    42   26   42 1
    43   27   35 1
    44   28   43 1
    45   30   34 1
    46    1   44 1
    47    2   45 1
    48    3   46 1
    49    4   47 1
    50   11   48 1
    51   11   49 1
    52   12   50 1
    53   12   51 1
    54   13   52 1
    55   13   53 1
    56   14   54 1
    57   14   55 1
    58   15   56 1
    59   16   57 1
    60   17   58 1
    61   18   59 1
    62   19   60 1
    63   19   61 1
    64   19   62 1
    65   20   63 1
    66   20   64 1
    67   20   65 1
    68   21   66 1
    69   21   67 1
    70   22   68 1
    71   22   69 1
    72   23   70 1
    73   23   71 1
    74   24   72 1
    75   24   73 1
    76   25   74 1
    77   25   75 1
    78   26   76 1
    79   26   77 1
    80   27   78 1
    81   28   79 1
    82   29   80 1
    83   30   81 1
    84   32   82 1
    85   32   83 1
    86   33   84 1
    87   33   85 1
    88   34   86 1
    89   35   87 1
    90   36   88 1
    91   40   89 1
    92   41   90 1
    93   42   91 1
    94   43   92 1
@<TRIPOS>MOLECULE
1a2c_ligand_15
   92    94     0     0     0
SMALL
USER_CHARGES

mmff94s_NoEstat = 106.06
@<TRIPOS>ATOM
      1 C1         -7.9932   -1.0210   -1.1999 C.ar      1 <0>        -0.0708
      2 C2         -5.8259   -0.0100   -1.5432 C.ar      1 <0>        -0.0872
      3 C3         -8.5676    0.2459   -1.0959 C.ar      1 <0>        -0.2241
      4 C4         -6.4004    1.2568   -1.4392 C.ar      1 <0>        -0.1600
      5 C5         -6.6301   -1.1319   -1.4222 C.ar      1 <0>        -0.1356
      6 C6         -7.7712    1.3848   -1.2155 C.ar      1 <0>         0.1290
      7 C7         -0.0512   -1.0561    0.2993 C.2       1 <0>         0.6664
      8 C8         -1.8469   -3.0457    2.1630 C.2       1 <0>         0.6651
      9 C9         -4.1811   -2.4610    0.1870 C.2       1 <0>         0.6454
     10 C10         0.1087    6.2839    0.0320 C.cat     1 <0>         0.6349
     11 C11         2.5186   -3.1911    0.6823 C.3       1 <0>        -0.0642
     12 C12         2.4580   -4.6414    0.2376 C.3       1 <0>        -0.0747
     13 C13         1.4874   -1.4827    2.2418 C.3       1 <0>        -0.0873
     14 C14         0.4946   -5.0934    1.7133 C.3       1 <0>        -0.1371
     15 C15         0.0412   -1.4176    1.7503 C.3       1 <0>         0.0360
     16 C16         1.8865   -2.9529    2.0632 C.3       1 <0>        -0.0720
     17 C17         0.5665   -3.7001    2.3454 C.3       1 <0>         0.1201
     18 C18         1.0248   -5.1525    0.2868 C.3       1 <0>         0.1453
     19 C19        -5.3726   -0.5418    3.1302 C.3       1 <0>        -0.0968
     20 C20        -3.4397    1.0389    2.9738 C.3       1 <0>        -0.0986
     21 C21        -6.0083   -2.5034   -1.5355 C.3       1 <0>        -0.0191
     22 C22        -1.0374    2.7415   -0.6235 C.3       1 <0>        -0.1009
     23 C23         0.2513    2.2726   -1.3090 C.3       1 <0>        -0.0942
     24 C24        -2.9973   -1.3585    3.5851 C.3       1 <0>        -0.0988
     25 C25        -1.1758    4.2607   -0.6924 C.3       1 <0>         0.1966
     26 C26         1.7383    0.3016   -2.0469 C.3       1 <0>         0.1128
     27 C27        -2.7865   -1.8644    2.1628 C.3       1 <0>         0.0786
     28 C28        -5.5432   -3.0384   -0.1771 C.3       1 <0>         0.0744
     29 C29        -3.9969   -0.1898    3.6979 C.3       1 <0>        -0.0678
     30 C30         0.4555    0.7445   -1.3388 C.3       1 <0>         0.1065
     31 N1         -0.4979   -2.7598    1.9615 N.am      1 <0>        -0.4315
     32 N2          1.2089    6.8461    0.6711 N.pl3     1 <0>        -0.8671
     33 N3         -0.8437    7.1205   -0.5399 N.pl3     1 <0>        -0.8581
     34 N4          0.4455    0.1980   -0.0008 N.am      1 <0>        -0.5687
     35 N5         -3.9799   -2.3853    1.5634 N.am      1 <0>        -0.5746
     36 N6         -0.0506    4.8893   -0.0421 N.pl3     1 <0>        -0.7533
     37 O1         -0.5362   -1.8555   -0.4928 O.2       1 <0>        -0.5843
     38 O2         -2.2998   -4.1783    2.3409 O.2       1 <0>        -0.6812
     39 O3         -3.3708   -2.0954   -0.6616 O.2       1 <0>        -0.5788
     40 O4         -8.3321    2.6210   -1.1157 O.3       1 <0>        -0.4938
     41 O5          0.9879   -6.5072   -0.1510 O.3       1 <0>        -0.6030
     42 O6          2.8703    0.8436   -1.3793 O.3       1 <0>        -0.5860
     43 O7         -5.4208   -4.4514   -0.2549 O.3       1 <0>        -0.6021
     44 H1         -8.6216   -1.9023   -1.1052 H         1 <0>         0.1412
     45 H2         -4.7569   -0.1001   -1.7178 H         1 <0>         0.1451
     46 H3         -9.6360    0.3389   -0.9219 H         1 <0>         0.1336
     47 H4         -5.7747    2.1405   -1.5342 H         1 <0>         0.1567
     48 H5          3.5627   -2.8549    0.7003 H         1 <0>         0.0649
     49 H6          2.0259   -2.5829   -0.0837 H         1 <0>         0.0476
     50 H7          2.8567   -4.7427   -0.7790 H         1 <0>         0.0641
     51 H8          3.1032   -5.2618    0.8729 H         1 <0>         0.0484
     52 H9          2.1569   -0.7868    1.7257 H         1 <0>         0.0596
     53 H10         1.5124   -1.2395    3.3116 H         1 <0>         0.0757
     54 H11         1.0921   -5.7802    2.3299 H         1 <0>         0.0782
     55 H12        -0.5175   -5.5090    1.7393 H         1 <0>         0.0812
     56 H13        -0.5378   -0.6778    2.3126 H         1 <0>         0.0731
     57 H14         2.6304   -3.2407    2.8169 H         1 <0>         0.0511
     58 H15         0.4523   -3.8218    3.4319 H         1 <0>         0.0753
     59 H16         0.3841   -4.5700   -0.3844 H         1 <0>         0.0427
     60 H17        -6.0375    0.3284    3.1563 H         1 <0>         0.0450
     61 H18        -5.8542   -1.3328    3.7128 H         1 <0>         0.0406
     62 H19        -5.2988   -0.8789    2.0908 H         1 <0>         0.0274
     63 H20        -3.3028    0.8425    1.9049 H         1 <0>         0.0476
     64 H21        -4.1178    1.8926    3.0773 H         1 <0>         0.0170
     65 H22        -2.4708    1.3315    3.3922 H         1 <0>         0.0477
     66 H23        -5.1607   -2.4579   -2.2324 H         1 <0>         0.0814
     67 H24        -6.7403   -3.1770   -1.9985 H         1 <0>         0.0685
     68 H25        -1.9092    2.2808   -1.1025 H         1 <0>         0.1016
     69 H26        -1.0467    2.4234    0.4259 H         1 <0>         0.0660
     70 H27         1.1110    2.7323   -0.8028 H         1 <0>         0.0512
     71 H28         0.2685    2.6560   -2.3373 H         1 <0>         0.0454
     72 H29        -2.0302   -1.0518    4.0061 H         1 <0>         0.0575
     73 H30        -3.3514   -2.1846    4.2177 H         1 <0>         0.0743
     74 H31        -2.0997    4.5809   -0.1994 H         1 <0>         0.0662
     75 H32        -1.2190    4.5954   -1.7340 H         1 <0>         0.0622
     76 H33         1.7614    0.6251   -3.0928 H         1 <0>         0.0321
     77 H34         1.8289   -0.7905   -2.0281 H         1 <0>         0.0204
     78 H35        -2.3647   -1.1082    1.5019 H         1 <0>         0.0749
     79 H36        -6.2595   -2.7988    0.6177 H         1 <0>         0.0719
     80 H37        -4.1195    0.0762    4.7551 H         1 <0>         0.0609
     81 H38        -0.3978    0.3245   -1.8868 H         1 <0>         0.1063
     82 H39         1.9287    6.2742    1.1048 H         1 <0>         0.4792
     83 H40         1.3225    7.8557    0.7245 H         1 <0>         0.4819
     84 H41        -1.6601    6.7429   -1.0146 H         1 <0>         0.4802
     85 H42        -0.7481    8.1323   -0.4992 H         1 <0>         0.4826
     86 H43         0.8216    0.7626    0.7549 H         1 <0>         0.3101
     87 H44        -4.7231   -2.7191    2.1790 H         1 <0>         0.3087
     88 H45         0.6822    4.3187    0.3968 H         1 <0>         0.4846
     89 H46        -9.0832    2.6009   -0.5014 H         1 <0>         0.4194
     90 H47         1.8515   -6.8926    0.0654 H         1 <0>         0.4036
     91 H48         2.9636    1.7601   -1.6856 H         1 <0>         0.4114
     92 H49        -5.9013   -4.7317   -1.0509 H         1 <0>         0.3944
@<TRIPOS>BOND
     1    1    3 ar
     2    1    5 ar
     3    2    4 ar
     4    2    5 ar
     5    3    6 ar
     6    4    6 ar
     7    5   21 1
     8    6   40 1
     9    7   15 1
    10    7   34 am
    11    7   37 2
    12    8   27 1
    13    8   31 am
    14    8   38 2
    15    9   28 1
    16    9   35 am
    17    9   39 2
    18   10   32 1
    19   10   33 1
    20   10   36 1
    21   11   12 1
    22   11   16 1
    23   12   18 1
    24   13   15 1
    25   13   16 1
    26   14   17 1
    27   14   18 1
    28   15   31 1
    29   16   17 1
    30   17   31 1
    31   18   41 1
    32   19   29 1
    33   20   29 1
    34   21   28 1
    35   22   23 1
    36   22   25 1
    37   23   30 1
    38   24   27 1
    39   24   29 1
    40   25   36 1
    41   26   30 1
    42   26   42 1
    43   27   35 1
    44   28   43 1
    45   30   34 1
    46    1   44 1
    47    2   45 1
    48    3   46 1
    49    4   47 1
    50   11   48 1
    51   11   49 1
    52   12   50 1
    53   12   51 1
    54   13   52 1
    55   13   53 1
    56   14   54 1
    57   14   55 1
    58   15   56 1
    59   16   57 1
    60   17   58 1
    61   18   59 1
    62   19   60 1
    63   19   61 1
    64   19   62 1
    65   20   63 1
    66   20   64 1
    67   20   65 1
    68   21   66 1
    69   21   67 1
    70   22   68 1
    71   22   69 1
    72   23   70 1
    73   23   71 1
    74   24   72 1
    75   24   73 1
    76   25   74 1
    77   25   75 1
    78   26   76 1
    79   26   77 1
    80   27   78 1
    81   28   79 1
    82   29   80 1
    83   30   81 1
    84   32   82 1
    85   32   83 1
    86   33   84 1
    87   33   85 1
    88   34   86 1
    89   35   87 1
    90   36   88 1
    91   40   89 1
    92   41   90 1
    93   42   91 1
    94   43   92 1
@<TRIPOS>MOLECULE
1a2c_ligand_16
   92    94     0     0     0
SMALL
USER_CHARGES

mmff94s_NoEstat = 106.16
@<TRIPOS>ATOM
      1 C1         -7.9689   -3.8418   -2.3194 C.ar      1 <0>        -0.0708
      2 C2         -8.3571   -1.6716   -1.3311 C.ar      1 <0>        -0.0872
      3 C3         -9.3420   -4.0030   -2.5045 C.ar      1 <0>        -0.2241
      4 C4         -9.7301   -1.8328   -1.5162 C.ar      1 <0>        -0.1600
      5 C5         -7.4949   -2.6782   -1.7352 C.ar      1 <0>        -0.1356
      6 C6        -10.2227   -2.9986   -2.1029 C.ar      1 <0>         0.1290
      7 C7         -0.0512   -1.0561    0.2993 C.2       1 <0>         0.6664
      8 C8         -1.8469   -3.0457    2.1630 C.2       1 <0>         0.6651
      9 C9         -4.1811   -2.4610    0.1870 C.2       1 <0>         0.6454
     10 C10         0.1087    6.2839    0.0320 C.cat     1 <0>         0.6349
     11 C11         2.5186   -3.1911    0.6823 C.3       1 <0>        -0.0642
     12 C12         2.4580   -4.6414    0.2376 C.3       1 <0>        -0.0747
     13 C13         1.4874   -1.4827    2.2418 C.3       1 <0>        -0.0873
     14 C14         0.4946   -5.0934    1.7133 C.3       1 <0>        -0.1371
     15 C15         0.0412   -1.4176    1.7503 C.3       1 <0>         0.0360
     16 C16         1.8865   -2.9529    2.0632 C.3       1 <0>        -0.0720
     17 C17         0.5665   -3.7001    2.3454 C.3       1 <0>         0.1201
     18 C18         1.0248   -5.1525    0.2868 C.3       1 <0>         0.1453
     19 C19        -5.3726   -0.5418    3.1302 C.3       1 <0>        -0.0968
     20 C20        -3.4397    1.0389    2.9738 C.3       1 <0>        -0.0986
     21 C21        -6.0083   -2.5034   -1.5355 C.3       1 <0>        -0.0191
     22 C22        -1.0374    2.7415   -0.6235 C.3       1 <0>        -0.1009
     23 C23         0.2513    2.2726   -1.3090 C.3       1 <0>        -0.0942
     24 C24        -2.9973   -1.3585    3.5851 C.3       1 <0>        -0.0988
     25 C25        -1.1758    4.2607   -0.6924 C.3       1 <0>         0.1966
     26 C26         1.7383    0.3016   -2.0469 C.3       1 <0>         0.1128
     27 C27        -2.7865   -1.8644    2.1628 C.3       1 <0>         0.0786
     28 C28        -5.5432   -3.0384   -0.1771 C.3       1 <0>         0.0744
     29 C29        -3.9969   -0.1898    3.6979 C.3       1 <0>        -0.0678
     30 C30         0.4555    0.7445   -1.3388 C.3       1 <0>         0.1065
     31 N1         -0.4979   -2.7598    1.9615 N.am      1 <0>        -0.4315
     32 N2          1.2089    6.8461    0.6711 N.pl3     1 <0>        -0.8671
     33 N3         -0.8437    7.1205   -0.5399 N.pl3     1 <0>        -0.8581
     34 N4          0.4455    0.1980   -0.0008 N.am      1 <0>        -0.5687
     35 N5         -3.9799   -2.3853    1.5634 N.am      1 <0>        -0.5746
     36 N6         -0.0506    4.8893   -0.0421 N.pl3     1 <0>        -0.7533
     37 O1         -0.5362   -1.8555   -0.4928 O.2       1 <0>        -0.5843
     38 O2         -2.2998   -4.1783    2.3409 O.2       1 <0>        -0.6812
     39 O3         -3.3708   -2.0954   -0.6616 O.2       1 <0>        -0.5788
     40 O4        -11.5624   -3.1552   -2.2851 O.3       1 <0>        -0.4938
     41 O5          0.9879   -6.5072   -0.1510 O.3       1 <0>        -0.6030
     42 O6          2.8703    0.8436   -1.3793 O.3       1 <0>        -0.5860
     43 O7         -5.4208   -4.4514   -0.2549 O.3       1 <0>        -0.6021
     44 H1         -7.2907   -4.6298   -2.6353 H         1 <0>         0.1412
     45 H2         -7.9823   -0.7598   -0.8733 H         1 <0>         0.1451
     46 H3         -9.7194   -4.9132   -2.9622 H         1 <0>         0.1336
     47 H4        -10.4112   -1.0463   -1.2021 H         1 <0>         0.1567
     48 H5          3.5627   -2.8549    0.7003 H         1 <0>         0.0649
     49 H6          2.0259   -2.5829   -0.0837 H         1 <0>         0.0476
     50 H7          2.8567   -4.7427   -0.7790 H         1 <0>         0.0641
     51 H8          3.1032   -5.2618    0.8729 H         1 <0>         0.0484
     52 H9          2.1569   -0.7868    1.7257 H         1 <0>         0.0596
     53 H10         1.5124   -1.2395    3.3116 H         1 <0>         0.0757
     54 H11         1.0921   -5.7802    2.3299 H         1 <0>         0.0782
     55 H12        -0.5175   -5.5090    1.7393 H         1 <0>         0.0812
     56 H13        -0.5378   -0.6778    2.3126 H         1 <0>         0.0731
     57 H14         2.6304   -3.2407    2.8169 H         1 <0>         0.0511
     58 H15         0.4523   -3.8218    3.4319 H         1 <0>         0.0753
     59 H16         0.3841   -4.5700   -0.3844 H         1 <0>         0.0427
     60 H17        -6.0375    0.3284    3.1563 H         1 <0>         0.0450
     61 H18        -5.8542   -1.3328    3.7128 H         1 <0>         0.0406
     62 H19        -5.2988   -0.8789    2.0908 H         1 <0>         0.0274
     63 H20        -3.3028    0.8425    1.9049 H         1 <0>         0.0476
     64 H21        -4.1178    1.8926    3.0773 H         1 <0>         0.0170
     65 H22        -2.4708    1.3315    3.3922 H         1 <0>         0.0477
     66 H23        -5.7555   -1.4385   -1.6272 H         1 <0>         0.0814
     67 H24        -5.4878   -3.0064   -2.3601 H         1 <0>         0.0685
     68 H25        -1.9092    2.2808   -1.1025 H         1 <0>         0.1016
     69 H26        -1.0467    2.4234    0.4259 H         1 <0>         0.0660
     70 H27         1.1110    2.7323   -0.8028 H         1 <0>         0.0512
     71 H28         0.2685    2.6560   -2.3373 H         1 <0>         0.0454
     72 H29        -2.0302   -1.0518    4.0061 H         1 <0>         0.0575
     73 H30        -3.3514   -2.1846    4.2177 H         1 <0>         0.0743
     74 H31        -2.0997    4.5809   -0.1994 H         1 <0>         0.0662
     75 H32        -1.2190    4.5954   -1.7340 H         1 <0>         0.0622
     76 H33         1.7614    0.6251   -3.0928 H         1 <0>         0.0321
     77 H34         1.8289   -0.7905   -2.0281 H         1 <0>         0.0204
     78 H35        -2.3647   -1.1082    1.5019 H         1 <0>         0.0749
     79 H36        -6.2595   -2.7988    0.6177 H         1 <0>         0.0719
     80 H37        -4.1195    0.0762    4.7551 H         1 <0>         0.0609
     81 H38        -0.3978    0.3245   -1.8868 H         1 <0>         0.1063
     82 H39         1.9287    6.2742    1.1048 H         1 <0>         0.4792
     83 H40         1.3225    7.8557    0.7245 H         1 <0>         0.4819
     84 H41        -1.6601    6.7429   -1.0146 H         1 <0>         0.4802
     85 H42        -0.7481    8.1323   -0.4992 H         1 <0>         0.4826
     86 H43         0.8216    0.7626    0.7549 H         1 <0>         0.3101
     87 H44        -4.7231   -2.7191    2.1790 H         1 <0>         0.3087
     88 H45         0.6822    4.3187    0.3968 H         1 <0>         0.4846
     89 H46       -11.8054   -4.0915   -2.2056 H         1 <0>         0.4194
     90 H47         1.8515   -6.8926    0.0654 H         1 <0>         0.4036
     91 H48         2.9636    1.7601   -1.6856 H         1 <0>         0.4114
     92 H49        -5.9013   -4.7317   -1.0509 H         1 <0>         0.3944
@<TRIPOS>BOND
     1    1    3 ar
     2    1    5 ar
     3    2    4 ar
     4    2    5 ar
     5    3    6 ar
     6    4    6 ar
     7    5   21 1
     8    6   40 1
     9    7   15 1
    10    7   34 am
    11    7   37 2
    12    8   27 1
    13    8   31 am
    14    8   38 2
    15    9   28 1
    16    9   35 am
    17    9   39 2
    18   10   32 1
    19   10   33 1
    20   10   36 1
    21   11   12 1
    22   11   16 1
    23   12   18 1
    24   13   15 1
    25   13   16 1
    26   14   17 1
    27   14   18 1
    28   15   31 1
    29   16   17 1
    30   17   31 1
    31   18   41 1
    32   19   29 1
    33   20   29 1
    34   21   28 1
    35   22   23 1
    36   22   25 1
    37   23   30 1
    38   24   27 1
    39   24   29 1
    40   25   36 1
    41   26   30 1
    42   26   42 1
    43   27   35 1
    44   28   43 1
    45   30   34 1
    46    1   44 1
    47    2   45 1
    48    3   46 1
    49    4   47 1
    50   11   48 1
    51   11   49 1
    52   12   50 1
    53   12   51 1
    54   13   52 1
    55   13   53 1
    56   14   54 1
    57   14   55 1
    58   15   56 1
    59   16   57 1
    60   17   58 1
    61   18   59 1
    62   19   60 1
    63   19   61 1
    64   19   62 1
    65   20   63 1
    66   20   64 1
    67   20   65 1
    68   21   66 1
    69   21   67 1
    70   22   68 1
    71   22   69 1
    72   23   70 1
    73   23   71 1
    74   24   72 1
    75   24   73 1
    76   25   74 1
    77   25   75 1
    78   26   76 1
    79   26   77 1
    80   27   78 1
    81   28   79 1
    82   29   80 1
    83   30   81 1
    84   32   82 1
    85   32   83 1
    86   33   84 1
    87   33   85 1
    88   34   86 1
    89   35   87 1
    90   36   88 1
    91   40   89 1
    92   41   90 1
    93   42   91 1
    94   43   92 1
@<TRIPOS>MOLECULE
1a2c_ligand_17
   92    94     0     0     0
SMALL
USER_CHARGES

mmff94s_NoEstat = 106.24
@<TRIPOS>ATOM
      1 C1         -8.6272   -2.8492   -1.4308 C.ar      1 <0>        -0.0708
      2 C2         -8.6280   -2.4747    0.9560 C.ar      1 <0>        -0.0872
      3 C3         -9.9370   -3.3232   -1.3568 C.ar      1 <0>        -0.2241
      4 C4         -9.9377   -2.9488    1.0300 C.ar      1 <0>        -0.1600
      5 C5         -7.9904   -2.4312   -0.2734 C.ar      1 <0>        -0.1356
      6 C6        -10.5923   -3.3731   -0.1264 C.ar      1 <0>         0.1290
      7 C7         -0.0512   -1.0561    0.2993 C.2       1 <0>         0.6664
      8 C8         -1.8469   -3.0457    2.1630 C.2       1 <0>         0.6651
      9 C9         -4.1811   -2.4610    0.1870 C.2       1 <0>         0.6454
     10 C10         5.9740   -1.8739   -3.0762 C.cat     1 <0>         0.6349
     11 C11         2.5186   -3.1911    0.6823 C.3       1 <0>        -0.0642
     12 C12         2.4580   -4.6414    0.2376 C.3       1 <0>        -0.0747
     13 C13         1.4874   -1.4827    2.2418 C.3       1 <0>        -0.0873
     14 C14         0.4946   -5.0934    1.7133 C.3       1 <0>        -0.1371
     15 C15         0.0412   -1.4176    1.7503 C.3       1 <0>         0.0360
     16 C16         1.8865   -2.9529    2.0632 C.3       1 <0>        -0.0720
     17 C17         0.5665   -3.7001    2.3454 C.3       1 <0>         0.1201
     18 C18         1.0248   -5.1525    0.2868 C.3       1 <0>         0.1453
     19 C19        -5.3726   -0.5418    3.1302 C.3       1 <0>        -0.0968
     20 C20        -3.4397    1.0389    2.9738 C.3       1 <0>        -0.0986
     21 C21        -6.5727   -1.9173   -0.3536 C.3       1 <0>        -0.0191
     22 C22         2.8091   -0.2380   -1.8118 C.3       1 <0>        -0.1009
     23 C23         1.3524   -0.0970   -2.2688 C.3       1 <0>        -0.0942
     24 C24        -2.9973   -1.3585    3.5851 C.3       1 <0>        -0.0988
     25 C25         3.6273   -1.0396   -2.8217 C.3       1 <0>         0.1966
     26 C26        -0.9878    0.8875   -1.8280 C.3       1 <0>         0.1128
     27 C27        -2.7865   -1.8644    2.1628 C.3       1 <0>         0.0786
     28 C28        -5.5432   -3.0384   -0.1771 C.3       1 <0>         0.0744
     29 C29        -3.9969   -0.1898    3.6979 C.3       1 <0>        -0.0678
     30 C30         0.4555    0.7445   -1.3388 C.3       1 <0>         0.1065
     31 N1         -0.4979   -2.7598    1.9615 N.am      1 <0>        -0.4315
     32 N2          7.2767   -1.9679   -2.5976 N.pl3     1 <0>        -0.8671
     33 N3          5.6472   -2.4923   -4.2783 N.pl3     1 <0>        -0.8581
     34 N4          0.4455    0.1980   -0.0008 N.am      1 <0>        -0.5687
     35 N5         -3.9799   -2.3853    1.5634 N.am      1 <0>        -0.5746
     36 N6          4.9906   -1.1661   -2.3638 N.pl3     1 <0>        -0.7533
     37 O1         -0.5362   -1.8555   -0.4928 O.2       1 <0>        -0.5843
     38 O2         -2.2998   -4.1783    2.3409 O.2       1 <0>        -0.6812
     39 O3         -3.3708   -2.0954   -0.6616 O.2       1 <0>        -0.5788
     40 O4        -11.8709   -3.8342   -0.0545 O.3       1 <0>        -0.4938
     41 O5          0.9879   -6.5072   -0.1510 O.3       1 <0>        -0.6030
     42 O6         -1.7287    1.6906   -0.9186 O.3       1 <0>        -0.5860
     43 O7         -5.4138   -3.7436   -1.4033 O.3       1 <0>        -0.6021
     44 H1         -8.1249   -2.8142   -2.3937 H         1 <0>         0.1412
     45 H2         -8.1259   -2.1460    1.8623 H         1 <0>         0.1451
     46 H3        -10.4414   -3.6521   -2.2611 H         1 <0>         0.1336
     47 H4        -10.4433   -2.9843    1.9914 H         1 <0>         0.1567
     48 H5          3.5627   -2.8549    0.7003 H         1 <0>         0.0649
     49 H6          2.0259   -2.5829   -0.0837 H         1 <0>         0.0476
     50 H7          2.8567   -4.7427   -0.7790 H         1 <0>         0.0641
     51 H8          3.1032   -5.2618    0.8729 H         1 <0>         0.0484
     52 H9          2.1569   -0.7868    1.7257 H         1 <0>         0.0596
     53 H10         1.5124   -1.2395    3.3116 H         1 <0>         0.0757
     54 H11         1.0921   -5.7802    2.3299 H         1 <0>         0.0782
     55 H12        -0.5175   -5.5090    1.7393 H         1 <0>         0.0812
     56 H13        -0.5378   -0.6778    2.3126 H         1 <0>         0.0731
     57 H14         2.6304   -3.2407    2.8169 H         1 <0>         0.0511
     58 H15         0.4523   -3.8218    3.4319 H         1 <0>         0.0753
     59 H16         0.3841   -4.5700   -0.3844 H         1 <0>         0.0427
     60 H17        -6.0375    0.3284    3.1563 H         1 <0>         0.0450
     61 H18        -5.8542   -1.3328    3.7128 H         1 <0>         0.0406
     62 H19        -5.2988   -0.8789    2.0908 H         1 <0>         0.0274
     63 H20        -3.3028    0.8425    1.9049 H         1 <0>         0.0476
     64 H21        -4.1178    1.8926    3.0773 H         1 <0>         0.0170
     65 H22        -2.4708    1.3315    3.3922 H         1 <0>         0.0477
     66 H23        -6.4251   -1.1465    0.4146 H         1 <0>         0.0814
     67 H24        -6.4443   -1.4079   -1.3169 H         1 <0>         0.0685
     68 H25         3.2637    0.7519   -1.6883 H         1 <0>         0.1016
     69 H26         2.8542   -0.7324   -0.8340 H         1 <0>         0.0660
     70 H27         0.9126   -1.0986   -2.3693 H         1 <0>         0.0512
     71 H28         1.3348    0.3408   -3.2751 H         1 <0>         0.0454
     72 H29        -2.0302   -1.0518    4.0061 H         1 <0>         0.0575
     73 H30        -3.3514   -2.1846    4.2177 H         1 <0>         0.0743
     74 H31         3.6213   -0.5411   -3.7968 H         1 <0>         0.0662
     75 H32         3.2008   -2.0392   -2.9543 H         1 <0>         0.0622
     76 H33        -1.4861   -0.0829   -1.9233 H         1 <0>         0.0321
     77 H34        -1.0136    1.3790   -2.8073 H         1 <0>         0.0204
     78 H35        -2.3647   -1.1082    1.5019 H         1 <0>         0.0749
     79 H36        -5.8508   -3.7504    0.5980 H         1 <0>         0.0719
     80 H37        -4.1195    0.0762    4.7551 H         1 <0>         0.0609
     81 H38         0.9010    1.7469   -1.2960 H         1 <0>         0.1063
     82 H39         7.5616   -1.5307   -1.7253 H         1 <0>         0.4792
     83 H40         7.9876   -2.4801   -3.1146 H         1 <0>         0.4819
     84 H41         4.7045   -2.4434   -4.6571 H         1 <0>         0.4802
     85 H42         6.3424   -3.0107   -4.8098 H         1 <0>         0.4826
     86 H43         0.8216    0.7626    0.7549 H         1 <0>         0.3101
     87 H44        -4.7231   -2.7191    2.1790 H         1 <0>         0.3087
     88 H45         5.2862   -0.7291   -1.4825 H         1 <0>         0.4846
     89 H46       -12.0198   -4.5188   -0.7260 H         1 <0>         0.4194
     90 H47         1.8515   -6.8926    0.0654 H         1 <0>         0.4036
     91 H48        -1.9874    1.1133   -0.1822 H         1 <0>         0.4114
     92 H49        -6.1819   -3.5045   -1.9474 H         1 <0>         0.3944
@<TRIPOS>BOND
     1    1    3 ar
     2    1    5 ar
     3    2    4 ar
     4    2    5 ar
     5    3    6 ar
     6    4    6 ar
     7    5   21 1
     8    6   40 1
     9    7   15 1
    10    7   34 am
    11    7   37 2
    12    8   27 1
    13    8   31 am
    14    8   38 2
    15    9   28 1
    16    9   35 am
    17    9   39 2
    18   10   32 1
    19   10   33 1
    20   10   36 1
    21   11   12 1
    22   11   16 1
    23   12   18 1
    24   13   15 1
    25   13   16 1
    26   14   17 1
    27   14   18 1
    28   15   31 1
    29   16   17 1
    30   17   31 1
    31   18   41 1
    32   19   29 1
    33   20   29 1
    34   21   28 1
    35   22   23 1
    36   22   25 1
    37   23   30 1
    38   24   27 1
    39   24   29 1
    40   25   36 1
    41   26   30 1
    42   26   42 1
    43   27   35 1
    44   28   43 1
    45   30   34 1
    46    1   44 1
    47    2   45 1
    48    3   46 1
    49    4   47 1
    50   11   48 1
    51   11   49 1
    52   12   50 1
    53   12   51 1
    54   13   52 1
    55   13   53 1
    56   14   54 1
    57   14   55 1
    58   15   56 1
    59   16   57 1
    60   17   58 1
    61   18   59 1
    62   19   60 1
    63   19   61 1
    64   19   62 1
    65   20   63 1
    66   20   64 1
    67   20   65 1
    68   21   66 1
    69   21   67 1
    70   22   68 1
    71   22   69 1
    72   23   70 1
    73   23   71 1
    74   24   72 1
    75   24   73 1
    76   25   74 1
    77   25   75 1
    78   26   76 1
    79   26   77 1
    80   27   78 1
    81   28   79 1
    82   29   80 1
    83   30   81 1
    84   32   82 1
    85   32   83 1
    86   33   84 1
    87   33   85 1
    88   34   86 1
    89   35   87 1
    90   36   88 1
    91   40   89 1
    92   41   90 1
    93   42   91 1
    94   43   92 1
@<TRIPOS>MOLECULE
1a2c_ligand_18
   92    94     0     0     0
SMALL
USER_CHARGES

mmff94s_NoEstat = 106.25
@<TRIPOS>ATOM
      1 C1         -7.6915   -4.5534   -2.2285 C.ar      1 <0>        -0.0708
      2 C2         -7.8704   -2.1497   -2.3935 C.ar      1 <0>        -0.0872
      3 C3         -9.0245   -4.6794   -2.6196 C.ar      1 <0>        -0.2241
      4 C4         -9.2033   -2.2757   -2.7846 C.ar      1 <0>        -0.1600
      5 C5         -7.1323   -3.2903   -2.1207 C.ar      1 <0>        -0.1356
      6 C6         -9.7804   -3.5406   -2.8977 C.ar      1 <0>         0.1290
      7 C7         -0.0512   -1.0561    0.2993 C.2       1 <0>         0.6664
      8 C8         -1.8469   -3.0457    2.1630 C.2       1 <0>         0.6651
      9 C9         -4.1811   -2.4610    0.1870 C.2       1 <0>         0.6454
     10 C10        -3.3294    2.0808   -3.5565 C.cat     1 <0>         0.6349
     11 C11         2.5186   -3.1911    0.6823 C.3       1 <0>        -0.0642
     12 C12         2.4580   -4.6414    0.2376 C.3       1 <0>        -0.0747
     13 C13         1.4874   -1.4827    2.2418 C.3       1 <0>        -0.0873
     14 C14         0.4946   -5.0934    1.7133 C.3       1 <0>        -0.1371
     15 C15         0.0412   -1.4176    1.7503 C.3       1 <0>         0.0360
     16 C16         1.8865   -2.9529    2.0632 C.3       1 <0>        -0.0720
     17 C17         0.5665   -3.7001    2.3454 C.3       1 <0>         0.1201
     18 C18         1.0248   -5.1525    0.2868 C.3       1 <0>         0.1453
     19 C19        -5.3726   -0.5418    3.1302 C.3       1 <0>        -0.0968
     20 C20        -3.4397    1.0389    2.9738 C.3       1 <0>        -0.0986
     21 C21        -5.6890   -3.1540   -1.6980 C.3       1 <0>        -0.0191
     22 C22        -1.0374    2.7415   -0.6235 C.3       1 <0>        -0.1009
     23 C23         0.2513    2.2726   -1.3090 C.3       1 <0>        -0.0942
     24 C24        -2.9973   -1.3585    3.5851 C.3       1 <0>        -0.0988
     25 C25        -2.2684    2.1304   -1.2894 C.3       1 <0>         0.1966
     26 C26         1.7383    0.3016   -2.0469 C.3       1 <0>         0.1128
     27 C27        -2.7865   -1.8644    2.1628 C.3       1 <0>         0.0786
     28 C28        -5.5432   -3.0384   -0.1771 C.3       1 <0>         0.0744
     29 C29        -3.9969   -0.1898    3.6979 C.3       1 <0>        -0.0678
     30 C30         0.4555    0.7445   -1.3388 C.3       1 <0>         0.1065
     31 N1         -0.4979   -2.7598    1.9615 N.am      1 <0>        -0.4315
     32 N2         -3.3390    2.4766   -4.8899 N.pl3     1 <0>        -0.8671
     33 N3         -4.3382    1.2447   -3.0902 N.pl3     1 <0>        -0.8581
     34 N4          0.4455    0.1980   -0.0008 N.am      1 <0>        -0.5687
     35 N5         -3.9799   -2.3853    1.5634 N.am      1 <0>        -0.5746
     36 N6         -2.3186    2.5130   -2.6805 N.pl3     1 <0>        -0.7533
     37 O1         -0.5362   -1.8555   -0.4928 O.2       1 <0>        -0.5843
     38 O2         -2.2998   -4.1783    2.3409 O.2       1 <0>        -0.6812
     39 O3         -3.3708   -2.0954   -0.6616 O.2       1 <0>        -0.5788
     40 O4        -11.0807   -3.6636   -3.2809 O.3       1 <0>        -0.4938
     41 O5          0.9879   -6.5072   -0.1510 O.3       1 <0>        -0.6030
     42 O6          2.8703    0.8436   -1.3793 O.3       1 <0>        -0.5860
     43 O7         -5.6445   -4.3341    0.3961 O.3       1 <0>        -0.6021
     44 H1         -7.1107   -5.4463   -2.0139 H         1 <0>         0.1412
     45 H2         -7.4289   -1.1601   -2.3083 H         1 <0>         0.1451
     46 H3         -9.4682   -5.6674   -2.7060 H         1 <0>         0.1336
     47 H4         -9.7869   -1.3847   -3.0007 H         1 <0>         0.1567
     48 H5          3.5627   -2.8549    0.7003 H         1 <0>         0.0649
     49 H6          2.0259   -2.5829   -0.0837 H         1 <0>         0.0476
     50 H7          2.8567   -4.7427   -0.7790 H         1 <0>         0.0641
     51 H8          3.1032   -5.2618    0.8729 H         1 <0>         0.0484
     52 H9          2.1569   -0.7868    1.7257 H         1 <0>         0.0596
     53 H10         1.5124   -1.2395    3.3116 H         1 <0>         0.0757
     54 H11         1.0921   -5.7802    2.3299 H         1 <0>         0.0782
     55 H12        -0.5175   -5.5090    1.7393 H         1 <0>         0.0812
     56 H13        -0.5378   -0.6778    2.3126 H         1 <0>         0.0731
     57 H14         2.6304   -3.2407    2.8169 H         1 <0>         0.0511
     58 H15         0.4523   -3.8218    3.4319 H         1 <0>         0.0753
     59 H16         0.3841   -4.5700   -0.3844 H         1 <0>         0.0427
     60 H17        -6.0375    0.3284    3.1563 H         1 <0>         0.0450
     61 H18        -5.8542   -1.3328    3.7128 H         1 <0>         0.0406
     62 H19        -5.2988   -0.8789    2.0908 H         1 <0>         0.0274
     63 H20        -3.3028    0.8425    1.9049 H         1 <0>         0.0476
     64 H21        -4.1178    1.8926    3.0773 H         1 <0>         0.0170
     65 H22        -2.4708    1.3315    3.3922 H         1 <0>         0.0477
     66 H23        -5.2527   -2.2721   -2.1860 H         1 <0>         0.0814
     67 H24        -5.1328   -4.0165   -2.0862 H         1 <0>         0.0685
     68 H25        -1.0263    2.4588    0.4356 H         1 <0>         0.1016
     69 H26        -1.1105    3.8350   -0.6596 H         1 <0>         0.0660
     70 H27         1.1110    2.7323   -0.8028 H         1 <0>         0.0512
     71 H28         0.2685    2.6560   -2.3373 H         1 <0>         0.0454
     72 H29        -2.0302   -1.0518    4.0061 H         1 <0>         0.0575
     73 H30        -3.3514   -2.1846    4.2177 H         1 <0>         0.0743
     74 H31        -3.1804    2.4738   -0.7898 H         1 <0>         0.0662
     75 H32        -2.2399    1.0381   -1.2201 H         1 <0>         0.0622
     76 H33         1.7614    0.6251   -3.0928 H         1 <0>         0.0321
     77 H34         1.8289   -0.7905   -2.0281 H         1 <0>         0.0204
     78 H35        -2.3647   -1.1082    1.5019 H         1 <0>         0.0749
     79 H36        -6.3286   -2.4083    0.2569 H         1 <0>         0.0719
     80 H37        -4.1195    0.0762    4.7551 H         1 <0>         0.0609
     81 H38        -0.3978    0.3245   -1.8868 H         1 <0>         0.1063
     82 H39        -2.6237    3.0881   -5.2742 H         1 <0>         0.4792
     83 H40        -4.0716    2.1635   -5.5226 H         1 <0>         0.4819
     84 H41        -4.3615    0.9362   -2.1213 H         1 <0>         0.4802
     85 H42        -5.0788    0.9188   -3.7066 H         1 <0>         0.4826
     86 H43         0.8216    0.7626    0.7549 H         1 <0>         0.3101
     87 H44        -4.7231   -2.7191    2.1790 H         1 <0>         0.3087
     88 H45        -1.5986    3.1289   -3.0773 H         1 <0>         0.4846
     89 H46       -11.4843   -4.4380   -2.8573 H         1 <0>         0.4194
     90 H47         1.8515   -6.8926    0.0654 H         1 <0>         0.4036
     91 H48         2.9636    1.7601   -1.6856 H         1 <0>         0.4114
     92 H49        -6.0303   -4.9121   -0.2823 H         1 <0>         0.3944
@<TRIPOS>BOND
     1    1    3 ar
     2    1    5 ar
     3    2    4 ar
     4    2    5 ar
     5    3    6 ar
     6    4    6 ar
     7    5   21 1
     8    6   40 1
     9    7   15 1
    10    7   34 am
    11    7   37 2
    12    8   27 1
    13    8   31 am
    14    8   38 2
    15    9   28 1
    16    9   35 am
    17    9   39 2
    18   10   32 1
    19   10   33 1
    20   10   36 1
    21   11   12 1
    22   11   16 1
    23   12   18 1
    24   13   15 1
    25   13   16 1
    26   14   17 1
    27   14   18 1
    28   15   31 1
    29   16   17 1
    30   17   31 1
    31   18   41 1
    32   19   29 1
    33   20   29 1
    34   21   28 1
    35   22   23 1
    36   22   25 1
    37   23   30 1
    38   24   27 1
    39   24   29 1
    40   25   36 1
    41   26   30 1
    42   26   42 1
    43   27   35 1
    44   28   43 1
    45   30   34 1
    46    1   44 1
    47    2   45 1
    48    3   46 1
    49    4   47 1
    50   11   48 1
    51   11   49 1
    52   12   50 1
    53   12   51 1
    54   13   52 1
    55   13   53 1
    56   14   54 1
    57   14   55 1
    58   15   56 1
    59   16   57 1
    60   17   58 1
    61   18   59 1
    62   19   60 1
    63   19   61 1
    64   19   62 1
    65   20   63 1
    66   20   64 1
    67   20   65 1
    68   21   66 1
    69   21   67 1
    70   22   68 1
    71   22   69 1
    72   23   70 1
    73   23   71 1
    74   24   72 1
    75   24   73 1
    76   25   74 1
    77   25   75 1
    78   26   76 1
    79   26   77 1
    80   27   78 1
    81   28   79 1
    82   29   80 1
    83   30   81 1
    84   32   82 1
    85   32   83 1
    86   33   84 1
    87   33   85 1
    88   34   86 1
    89   35   87 1
    90   36   88 1
    91   40   89 1
    92   41   90 1
    93   42   91 1
    94   43   92 1
@<TRIPOS>MOLECULE
1a2c_ligand_19
   92    94     0     0     0
SMALL
USER_CHARGES

mmff94s_NoEstat = 106.26
@<TRIPOS>ATOM
      1 C1         -7.5346    0.8177   -2.9104 C.ar      1 <0>        -0.0708
      2 C2         -5.2514    1.4900   -2.4958 C.ar      1 <0>        -0.0872
      3 C3         -7.9778    2.0803   -2.5169 C.ar      1 <0>        -0.2241
      4 C4         -5.6946    2.7527   -2.1023 C.ar      1 <0>        -0.1600
      5 C5         -6.1773    0.5395   -2.8946 C.ar      1 <0>        -0.1356
      6 C6         -7.0578    3.0479   -2.1128 C.ar      1 <0>         0.1290
      7 C7         -0.1674   -1.0853   -0.0424 C.2       1 <0>         0.6664
      8 C8         -2.5997   -3.1326    0.7250 C.2       1 <0>         0.6651
      9 C9         -4.3299   -1.6044   -1.3634 C.2       1 <0>         0.6454
     10 C10        -1.7484    6.1931    1.4107 C.cat     1 <0>         0.6349
     11 C11         2.0445   -3.7524    0.2047 C.3       1 <0>        -0.0642
     12 C12         2.1951   -5.1517   -0.3975 C.3       1 <0>        -0.0747
     13 C13         0.7864   -2.3272    1.9103 C.3       1 <0>        -0.0873
     14 C14        -0.3466   -4.9962   -0.4055 C.3       1 <0>        -0.1371
     15 C15        -0.4770   -1.8334    1.2187 C.3       1 <0>         0.0360
     16 C16         1.0305   -3.7327    1.3503 C.3       1 <0>        -0.0720
     17 C17        -0.3661   -4.2312    0.9284 C.3       1 <0>         0.1201
     18 C18         0.8694   -5.9135   -0.5141 C.3       1 <0>         0.1453
     19 C19        -5.9631   -0.4404    1.7581 C.3       1 <0>        -0.0968
     20 C20        -3.8887    0.7550    2.4841 C.3       1 <0>        -0.0986
     21 C21        -5.6975   -0.8273   -3.3213 C.3       1 <0>        -0.0191
     22 C22        -0.3657    2.9388    0.0730 C.3       1 <0>        -0.1009
     23 C23         0.9718    2.4190   -0.4671 C.3       1 <0>        -0.0942
     24 C24        -3.8619   -1.7555    2.3678 C.3       1 <0>        -0.0988
     25 C25        -0.2710    4.4161    0.4476 C.3       1 <0>         0.1966
     26 C26         2.3035    0.4585   -1.4784 C.3       1 <0>         0.1128
     27 C27        -3.3800   -1.8574    0.9254 C.3       1 <0>         0.0786
     28 C28        -5.6231   -1.8048   -2.1437 C.3       1 <0>         0.0744
     29 C29        -4.7285   -0.5135    2.6578 C.3       1 <0>        -0.0678
     30 C30         0.9627    0.9465   -0.9241 C.3       1 <0>         0.1065
     31 N1         -1.2224   -3.0398    0.8850 N.am      1 <0>        -0.4315
     32 N2         -2.9884    6.5947    1.8966 N.pl3     1 <0>        -0.8671
     33 N3         -0.7056    7.1123    1.3716 N.pl3     1 <0>        -0.8581
     34 N4          0.5562    0.0753    0.1551 N.am      1 <0>        -0.5687
     35 N5         -4.4491   -1.9660   -0.0233 N.am      1 <0>        -0.5746
     36 N6         -1.5385    4.8777    0.9618 N.pl3     1 <0>        -0.7533
     37 O1         -0.5544   -1.5275   -1.1177 O.2       1 <0>        -0.5843
     38 O2         -3.1933   -4.1752    0.4418 O.2       1 <0>        -0.6812
     39 O3         -3.3092   -1.1565   -1.8810 O.2       1 <0>        -0.5788
     40 O4         -7.4902    4.2805   -1.7304 O.3       1 <0>        -0.4938
     41 O5          0.7872   -6.8901    0.5248 O.3       1 <0>        -0.6030
     42 O6          3.3063    0.5601   -0.4760 O.3       1 <0>        -0.5860
     43 O7         -5.6385   -3.1336   -2.6450 O.3       1 <0>        -0.6021
     44 H1         -8.2588    0.0704   -3.2233 H         1 <0>         0.1412
     45 H2         -4.1872    1.2690   -2.4847 H         1 <0>         0.1451
     46 H3         -9.0409    2.3042   -2.5274 H         1 <0>         0.1336
     47 H4         -4.9728    3.5026   -1.7894 H         1 <0>         0.1567
     48 H5          3.0220   -3.4003    0.5555 H         1 <0>         0.0649
     49 H6          1.7363   -3.0584   -0.5866 H         1 <0>         0.0476
     50 H7          2.6388   -5.0399   -1.3944 H         1 <0>         0.0641
     51 H8          2.9088   -5.7297    0.2024 H         1 <0>         0.0484
     52 H9          1.6439   -1.6583    1.7836 H         1 <0>         0.0596
     53 H10         0.5887   -2.4119    2.9867 H         1 <0>         0.0757
     54 H11        -1.2632   -5.5927   -0.4872 H         1 <0>         0.0782
     55 H12        -0.3526   -4.2949   -1.2498 H         1 <0>         0.0812
     56 H13        -1.0651   -1.1731    1.8629 H         1 <0>         0.0731
     57 H14         1.4245   -4.3763    2.1480 H         1 <0>         0.0511
     58 H15        -0.7725   -4.8823    1.7135 H         1 <0>         0.0753
     59 H16         0.8433   -6.4624   -1.4612 H         1 <0>         0.0427
     60 H17        -6.5181    0.4873    1.9352 H         1 <0>         0.0450
     61 H18        -6.6497   -1.2692    1.9547 H         1 <0>         0.0406
     62 H19        -5.6850   -0.4702    0.6992 H         1 <0>         0.0274
     63 H20        -3.5277    0.8553    1.4548 H         1 <0>         0.0476
     64 H21        -4.4764    1.6472    2.7254 H         1 <0>         0.0170
     65 H22        -3.0188    0.7404    3.1493 H         1 <0>         0.0477
     66 H23        -4.7106   -0.7311   -3.7935 H         1 <0>         0.0814
     67 H24        -6.3690   -1.1997   -4.1051 H         1 <0>         0.0685
     68 H25        -1.1525    2.8103   -0.6795 H         1 <0>         0.1016
     69 H26        -0.6706    2.3600    0.9531 H         1 <0>         0.0660
     70 H27         1.7402    2.5418    0.3082 H         1 <0>         0.0512
     71 H28         1.2882    3.0521   -1.3060 H         1 <0>         0.0454
     72 H29        -2.9928   -1.7573    3.0396 H         1 <0>         0.0575
     73 H30        -4.4407   -2.6540    2.6237 H         1 <0>         0.0743
     74 H31        -0.0005    5.0139   -0.4292 H         1 <0>         0.0662
     75 H32         0.5008    4.5705    1.2088 H         1 <0>         0.0622
     76 H33         2.6215    1.0387   -2.3510 H         1 <0>         0.0321
     77 H34         2.2342   -0.5935   -1.7781 H         1 <0>         0.0204
     78 H35        -2.7366   -1.0282    0.6336 H         1 <0>         0.0749
     79 H36        -6.4753   -1.6838   -1.4644 H         1 <0>         0.0719
     80 H37        -5.0656   -0.5471    3.7011 H         1 <0>         0.0609
     81 H38         0.2159    0.8710   -1.7251 H         1 <0>         0.1063
     82 H39        -3.7797    5.9582    1.9421 H         1 <0>         0.4792
     83 H40        -3.1390    7.5472    2.2206 H         1 <0>         0.4819
     84 H41         0.2136    6.8523    1.0223 H         1 <0>         0.4802
     85 H42        -0.8346    8.0689    1.6923 H         1 <0>         0.4826
     86 H43         0.8147    0.3282    1.1041 H         1 <0>         0.3101
     87 H44        -5.3471   -2.3283    0.3008 H         1 <0>         0.3087
     88 H45        -2.3426    4.2405    1.0130 H         1 <0>         0.4846
     89 H46        -8.3618    4.2152   -1.3085 H         1 <0>         0.4194
     90 H47         1.3049   -6.5470    1.2701 H         1 <0>         0.4036
     91 H48         3.5968    1.4864   -0.4636 H         1 <0>         0.4114
     92 H49        -5.9469   -3.0835   -3.5645 H         1 <0>         0.3944
@<TRIPOS>BOND
     1    1    3 ar
     2    1    5 ar
     3    2    4 ar
     4    2    5 ar
     5    3    6 ar
     6    4    6 ar
     7    5   21 1
     8    6   40 1
     9    7   15 1
    10    7   34 am
    11    7   37 2
    12    8   27 1
    13    8   31 am
    14    8   38 2
    15    9   28 1
    16    9   35 am
    17    9   39 2
    18   10   32 1
    19   10   33 1
    20   10   36 1
    21   11   12 1
    22   11   16 1
    23   12   18 1
    24   13   15 1
    25   13   16 1
    26   14   17 1
    27   14   18 1
    28   15   31 1
    29   16   17 1
    30   17   31 1
    31   18   41 1
    32   19   29 1
    33   20   29 1
    34   21   28 1
    35   22   23 1
    36   22   25 1
    37   23   30 1
    38   24   27 1
    39   24   29 1
    40   25   36 1
    41   26   30 1
    42   26   42 1
    43   27   35 1
    44   28   43 1
    45   30   34 1
    46    1   44 1
    47    2   45 1
    48    3   46 1
    49    4   47 1
    50   11   48 1
    51   11   49 1
    52   12   50 1
    53   12   51 1
    54   13   52 1
    55   13   53 1
    56   14   54 1
    57   14   55 1
    58   15   56 1
    59   16   57 1
    60   17   58 1
    61   18   59 1
    62   19   60 1
    63   19   61 1
    64   19   62 1
    65   20   63 1
    66   20   64 1
    67   20   65 1
    68   21   66 1
    69   21   67 1
    70   22   68 1
    71   22   69 1
    72   23   70 1
    73   23   71 1
    74   24   72 1
    75   24   73 1
    76   25   74 1
    77   25   75 1
    78   26   76 1
    79   26   77 1
    80   27   78 1
    81   28   79 1
    82   29   80 1
    83   30   81 1
    84   32   82 1
    85   32   83 1
    86   33   84 1
    87   33   85 1
    88   34   86 1
    89   35   87 1
    90   36   88 1
    91   40   89 1
    92   41   90 1
    93   42   91 1
    94   43   92 1
@<TRIPOS>MOLECULE
1a2c_ligand_20
   92    94     0     0     0
SMALL
USER_CHARGES

mmff94s_NoEstat = 106.34
@<TRIPOS>ATOM
      1 C1         -7.6915   -4.5534   -2.2285 C.ar      1 <0>        -0.0708
      2 C2         -7.8704   -2.1497   -2.3935 C.ar      1 <0>        -0.0872
      3 C3         -9.0245   -4.6794   -2.6196 C.ar      1 <0>        -0.2241
      4 C4         -9.2033   -2.2757   -2.7846 C.ar      1 <0>        -0.1600
      5 C5         -7.1323   -3.2903   -2.1207 C.ar      1 <0>        -0.1356
      6 C6         -9.7804   -3.5406   -2.8977 C.ar      1 <0>         0.1290
      7 C7         -0.0512   -1.0561    0.2993 C.2       1 <0>         0.6664
      8 C8         -1.8469   -3.0457    2.1630 C.2       1 <0>         0.6651
      9 C9         -4.1811   -2.4610    0.1870 C.2       1 <0>         0.6454
     10 C10         3.5897   -3.3158   -3.8636 C.cat     1 <0>         0.6349
     11 C11         2.5186   -3.1911    0.6823 C.3       1 <0>        -0.0642
     12 C12         2.4580   -4.6414    0.2376 C.3       1 <0>        -0.0747
     13 C13         1.4874   -1.4827    2.2418 C.3       1 <0>        -0.0873
     14 C14         0.4946   -5.0934    1.7133 C.3       1 <0>        -0.1371
     15 C15         0.0412   -1.4176    1.7503 C.3       1 <0>         0.0360
     16 C16         1.8865   -2.9529    2.0632 C.3       1 <0>        -0.0720
     17 C17         0.5665   -3.7001    2.3454 C.3       1 <0>         0.1201
     18 C18         1.0248   -5.1525    0.2868 C.3       1 <0>         0.1453
     19 C19        -5.3726   -0.5418    3.1302 C.3       1 <0>        -0.0968
     20 C20        -3.4397    1.0389    2.9738 C.3       1 <0>        -0.0986
     21 C21        -5.6890   -3.1540   -1.6980 C.3       1 <0>        -0.0191
     22 C22         2.8091   -0.2380   -1.8118 C.3       1 <0>        -0.1009
     23 C23         1.3524   -0.0970   -2.2688 C.3       1 <0>        -0.0942
     24 C24        -2.9973   -1.3585    3.5851 C.3       1 <0>        -0.0988
     25 C25         3.6273   -1.0396   -2.8217 C.3       1 <0>         0.1966
     26 C26        -0.9878    0.8875   -1.8280 C.3       1 <0>         0.1128
     27 C27        -2.7865   -1.8644    2.1628 C.3       1 <0>         0.0786
     28 C28        -5.5432   -3.0384   -0.1771 C.3       1 <0>         0.0744
     29 C29        -3.9969   -0.1898    3.6979 C.3       1 <0>        -0.0678
     30 C30         0.4555    0.7445   -1.3388 C.3       1 <0>         0.1065
     31 N1         -0.4979   -2.7598    1.9615 N.am      1 <0>        -0.4315
     32 N2          3.0132   -4.5761   -3.9816 N.pl3     1 <0>        -0.8671
     33 N3          4.7045   -3.0053   -4.6349 N.pl3     1 <0>        -0.8581
     34 N4          0.4455    0.1980   -0.0008 N.am      1 <0>        -0.5687
     35 N5         -3.9799   -2.3853    1.5634 N.am      1 <0>        -0.5746
     36 N6          3.0622   -2.3586   -2.9797 N.pl3     1 <0>        -0.7533
     37 O1         -0.5362   -1.8555   -0.4928 O.2       1 <0>        -0.5843
     38 O2         -2.2998   -4.1783    2.3409 O.2       1 <0>        -0.6812
     39 O3         -3.3708   -2.0954   -0.6616 O.2       1 <0>        -0.5788
     40 O4        -11.0807   -3.6636   -3.2809 O.3       1 <0>        -0.4938
     41 O5          0.9879   -6.5072   -0.1510 O.3       1 <0>        -0.6030
     42 O6         -1.7287    1.6906   -0.9186 O.3       1 <0>        -0.5860
     43 O7         -5.6445   -4.3341    0.3961 O.3       1 <0>        -0.6021
     44 H1         -7.1107   -5.4463   -2.0139 H         1 <0>         0.1412
     45 H2         -7.4289   -1.1601   -2.3083 H         1 <0>         0.1451
     46 H3         -9.4682   -5.6674   -2.7060 H         1 <0>         0.1336
     47 H4         -9.7869   -1.3847   -3.0007 H         1 <0>         0.1567
     48 H5          3.5627   -2.8549    0.7003 H         1 <0>         0.0649
     49 H6          2.0259   -2.5829   -0.0837 H         1 <0>         0.0476
     50 H7          2.8567   -4.7427   -0.7790 H         1 <0>         0.0641
     51 H8          3.1032   -5.2618    0.8729 H         1 <0>         0.0484
     52 H9          2.1569   -0.7868    1.7257 H         1 <0>         0.0596
     53 H10         1.5124   -1.2395    3.3116 H         1 <0>         0.0757
     54 H11         1.0921   -5.7802    2.3299 H         1 <0>         0.0782
     55 H12        -0.5175   -5.5090    1.7393 H         1 <0>         0.0812
     56 H13        -0.5378   -0.6778    2.3126 H         1 <0>         0.0731
     57 H14         2.6304   -3.2407    2.8169 H         1 <0>         0.0511
     58 H15         0.4523   -3.8218    3.4319 H         1 <0>         0.0753
     59 H16         0.3841   -4.5700   -0.3844 H         1 <0>         0.0427
     60 H17        -6.0375    0.3284    3.1563 H         1 <0>         0.0450
     61 H18        -5.8542   -1.3328    3.7128 H         1 <0>         0.0406
     62 H19        -5.2988   -0.8789    2.0908 H         1 <0>         0.0274
     63 H20        -3.3028    0.8425    1.9049 H         1 <0>         0.0476
     64 H21        -4.1178    1.8926    3.0773 H         1 <0>         0.0170
     65 H22        -2.4708    1.3315    3.3922 H         1 <0>         0.0477
     66 H23        -5.2527   -2.2721   -2.1860 H         1 <0>         0.0814
     67 H24        -5.1328   -4.0165   -2.0862 H         1 <0>         0.0685
     68 H25         3.2637    0.7519   -1.6883 H         1 <0>         0.1016
     69 H26         2.8542   -0.7324   -0.8340 H         1 <0>         0.0660
     70 H27         0.9126   -1.0986   -2.3693 H         1 <0>         0.0512
     71 H28         1.3348    0.3408   -3.2751 H         1 <0>         0.0454
     72 H29        -2.0302   -1.0518    4.0061 H         1 <0>         0.0575
     73 H30        -3.3514   -2.1846    4.2177 H         1 <0>         0.0743
     74 H31         4.6645   -1.1321   -2.4825 H         1 <0>         0.0662
     75 H32         3.6369   -0.5363   -3.7940 H         1 <0>         0.0622
     76 H33        -1.4861   -0.0829   -1.9233 H         1 <0>         0.0321
     77 H34        -1.0136    1.3790   -2.8073 H         1 <0>         0.0204
     78 H35        -2.3647   -1.1082    1.5019 H         1 <0>         0.0749
     79 H36        -6.3286   -2.4083    0.2569 H         1 <0>         0.0719
     80 H37        -4.1195    0.0762    4.7551 H         1 <0>         0.0609
     81 H38         0.9010    1.7469   -1.2960 H         1 <0>         0.1063
     82 H39         2.1991   -4.8480   -3.4369 H         1 <0>         0.4792
     83 H40         3.3965   -5.2682   -4.6214 H         1 <0>         0.4819
     84 H41         5.1508   -2.0934   -4.5734 H         1 <0>         0.4802
     85 H42         5.1022   -3.6820   -5.2818 H         1 <0>         0.4826
     86 H43         0.8216    0.7626    0.7549 H         1 <0>         0.3101
     87 H44        -4.7231   -2.7191    2.1790 H         1 <0>         0.3087
     88 H45         2.2384   -2.6406   -2.4346 H         1 <0>         0.4846
     89 H46       -11.4843   -4.4380   -2.8573 H         1 <0>         0.4194
     90 H47         1.8515   -6.8926    0.0654 H         1 <0>         0.4036
     91 H48        -1.9874    1.1133   -0.1822 H         1 <0>         0.4114
     92 H49        -6.0303   -4.9121   -0.2823 H         1 <0>         0.3944
@<TRIPOS>BOND
     1    1    3 ar
     2    1    5 ar
     3    2    4 ar
     4    2    5 ar
     5    3    6 ar
     6    4    6 ar
     7    5   21 1
     8    6   40 1
     9    7   15 1
    10    7   34 am
    11    7   37 2
    12    8   27 1
    13    8   31 am
    14    8   38 2
    15    9   28 1
    16    9   35 am
    17    9   39 2
    18   10   32 1
    19   10   33 1
    20   10   36 1
    21   11   12 1
    22   11   16 1
    23   12   18 1
    24   13   15 1
    25   13   16 1
    26   14   17 1
    27   14   18 1
    28   15   31 1
    29   16   17 1
    30   17   31 1
    31   18   41 1
    32   19   29 1
    33   20   29 1
    34   21   28 1
    35   22   23 1
    36   22   25 1
    37   23   30 1
    38   24   27 1
    39   24   29 1
    40   25   36 1
    41   26   30 1
    42   26   42 1
    43   27   35 1
    44   28   43 1
    45   30   34 1
    46    1   44 1
    47    2   45 1
    48    3   46 1
    49    4   47 1
    50   11   48 1
    51   11   49 1
    52   12   50 1
    53   12   51 1
    54   13   52 1
    55   13   53 1
    56   14   54 1
    57   14   55 1
    58   15   56 1
    59   16   57 1
    60   17   58 1
    61   18   59 1
    62   19   60 1
    63   19   61 1
    64   19   62 1
    65   20   63 1
    66   20   64 1
    67   20   65 1
    68   21   66 1
    69   21   67 1
    70   22   68 1
    71   22   69 1
    72   23   70 1
    73   23   71 1
    74   24   72 1
    75   24   73 1
    76   25   74 1
    77   25   75 1
    78   26   76 1
    79   26   77 1
    80   27   78 1
    81   28   79 1
    82   29   80 1
    83   30   81 1
    84   32   82 1
    85   32   83 1
    86   33   84 1
    87   33   85 1
    88   34   86 1
    89   35   87 1
    90   36   88 1
    91   40   89 1
    92   41   90 1
    93   42   91 1
    94   43   92 1
@<TRIPOS>MOLECULE
1a2c_ligand_21
   92    94     0     0     0
SMALL
USER_CHARGES

mmff94s_NoEstat = 106.36
@<TRIPOS>ATOM
      1 C1         -8.6272   -2.8492   -1.4308 C.ar      1 <0>        -0.0708
      2 C2         -8.6280   -2.4747    0.9560 C.ar      1 <0>        -0.0872
      3 C3         -9.9370   -3.3232   -1.3568 C.ar      1 <0>        -0.2241
      4 C4         -9.9377   -2.9488    1.0300 C.ar      1 <0>        -0.1600
      5 C5         -7.9904   -2.4312   -0.2734 C.ar      1 <0>        -0.1356
      6 C6        -10.5923   -3.3731   -0.1264 C.ar      1 <0>         0.1290
      7 C7         -0.0512   -1.0561    0.2993 C.2       1 <0>         0.6664
      8 C8         -1.8469   -3.0457    2.1630 C.2       1 <0>         0.6651
      9 C9         -4.1811   -2.4610    0.1870 C.2       1 <0>         0.6454
     10 C10        -4.7698    2.2135   -3.1337 C.cat     1 <0>         0.6349
     11 C11         2.5186   -3.1911    0.6823 C.3       1 <0>        -0.0642
     12 C12         2.4580   -4.6414    0.2376 C.3       1 <0>        -0.0747
     13 C13         1.4874   -1.4827    2.2418 C.3       1 <0>        -0.0873
     14 C14         0.4946   -5.0934    1.7133 C.3       1 <0>        -0.1371
     15 C15         0.0412   -1.4176    1.7503 C.3       1 <0>         0.0360
     16 C16         1.8865   -2.9529    2.0632 C.3       1 <0>        -0.0720
     17 C17         0.5665   -3.7001    2.3454 C.3       1 <0>         0.1201
     18 C18         1.0248   -5.1525    0.2868 C.3       1 <0>         0.1453
     19 C19        -5.3726   -0.5418    3.1302 C.3       1 <0>        -0.0968
     20 C20        -3.4397    1.0389    2.9738 C.3       1 <0>        -0.0986
     21 C21        -6.5727   -1.9173   -0.3536 C.3       1 <0>        -0.0191
     22 C22        -0.9951    2.0137   -3.0747 C.3       1 <0>        -0.1009
     23 C23        -0.8794    1.4488   -1.6540 C.3       1 <0>        -0.0942
     24 C24        -2.9973   -1.3585    3.5851 C.3       1 <0>        -0.0988
     25 C25        -2.3255    2.7368   -3.2725 C.3       1 <0>         0.1966
     26 C26         1.6856    1.6412   -1.5001 C.3       1 <0>         0.1128
     27 C27        -2.7865   -1.8644    2.1628 C.3       1 <0>         0.0786
     28 C28        -5.5432   -3.0384   -0.1771 C.3       1 <0>         0.0744
     29 C29        -3.9969   -0.1898    3.6979 C.3       1 <0>        -0.0678
     30 C30         0.4555    0.7445   -1.3388 C.3       1 <0>         0.1065
     31 N1         -0.4979   -2.7598    1.9615 N.am      1 <0>        -0.4315
     32 N2         -5.7943    1.2997   -2.9095 N.pl3     1 <0>        -0.8671
     33 N3         -5.0918    3.5293   -3.4484 N.pl3     1 <0>        -0.8581
     34 N4          0.4455    0.1980   -0.0008 N.am      1 <0>        -0.5687
     35 N5         -3.9799   -2.3853    1.5634 N.am      1 <0>        -0.5746
     36 N6         -3.4217    1.8252   -3.0463 N.pl3     1 <0>        -0.7533
     37 O1         -0.5362   -1.8555   -0.4928 O.2       1 <0>        -0.5843
     38 O2         -2.2998   -4.1783    2.3409 O.2       1 <0>        -0.6812
     39 O3         -3.3708   -2.0954   -0.6616 O.2       1 <0>        -0.5788
     40 O4        -11.8709   -3.8342   -0.0545 O.3       1 <0>        -0.4938
     41 O5          0.9879   -6.5072   -0.1510 O.3       1 <0>        -0.6030
     42 O6          1.5971    2.7470   -0.6113 O.3       1 <0>        -0.5860
     43 O7         -5.4138   -3.7436   -1.4033 O.3       1 <0>        -0.6021
     44 H1         -8.1249   -2.8142   -2.3937 H         1 <0>         0.1412
     45 H2         -8.1259   -2.1460    1.8623 H         1 <0>         0.1451
     46 H3        -10.4414   -3.6521   -2.2611 H         1 <0>         0.1336
     47 H4        -10.4433   -2.9843    1.9914 H         1 <0>         0.1567
     48 H5          3.5627   -2.8549    0.7003 H         1 <0>         0.0649
     49 H6          2.0259   -2.5829   -0.0837 H         1 <0>         0.0476
     50 H7          2.8567   -4.7427   -0.7790 H         1 <0>         0.0641
     51 H8          3.1032   -5.2618    0.8729 H         1 <0>         0.0484
     52 H9          2.1569   -0.7868    1.7257 H         1 <0>         0.0596
     53 H10         1.5124   -1.2395    3.3116 H         1 <0>         0.0757
     54 H11         1.0921   -5.7802    2.3299 H         1 <0>         0.0782
     55 H12        -0.5175   -5.5090    1.7393 H         1 <0>         0.0812
     56 H13        -0.5378   -0.6778    2.3126 H         1 <0>         0.0731
     57 H14         2.6304   -3.2407    2.8169 H         1 <0>         0.0511
     58 H15         0.4523   -3.8218    3.4319 H         1 <0>         0.0753
     59 H16         0.3841   -4.5700   -0.3844 H         1 <0>         0.0427
     60 H17        -6.0375    0.3284    3.1563 H         1 <0>         0.0450
     61 H18        -5.8542   -1.3328    3.7128 H         1 <0>         0.0406
     62 H19        -5.2988   -0.8789    2.0908 H         1 <0>         0.0274
     63 H20        -3.3028    0.8425    1.9049 H         1 <0>         0.0476
     64 H21        -4.1178    1.8926    3.0773 H         1 <0>         0.0170
     65 H22        -2.4708    1.3315    3.3922 H         1 <0>         0.0477
     66 H23        -6.4251   -1.1465    0.4146 H         1 <0>         0.0814
     67 H24        -6.4443   -1.4079   -1.3169 H         1 <0>         0.0685
     68 H25        -0.1747    2.7139   -3.2707 H         1 <0>         0.1016
     69 H26        -0.9072    1.2071   -3.8124 H         1 <0>         0.0660
     70 H27        -1.7000    0.7382   -1.4859 H         1 <0>         0.0512
     71 H28        -1.0340    2.2618   -0.9330 H         1 <0>         0.0454
     72 H29        -2.0302   -1.0518    4.0061 H         1 <0>         0.0575
     73 H30        -3.3514   -2.1846    4.2177 H         1 <0>         0.0743
     74 H31        -2.3940    3.1346   -4.2905 H         1 <0>         0.0662
     75 H32        -2.4118    3.5787   -2.5778 H         1 <0>         0.0622
     76 H33         1.7842    2.0214   -2.5223 H         1 <0>         0.0321
     77 H34         2.5988    1.0866   -1.2555 H         1 <0>         0.0204
     78 H35        -2.3647   -1.1082    1.5019 H         1 <0>         0.0749
     79 H36        -5.8508   -3.7504    0.5980 H         1 <0>         0.0719
     80 H37        -4.1195    0.0762    4.7551 H         1 <0>         0.0609
     81 H38         0.5463   -0.0881   -2.0483 H         1 <0>         0.1063
     82 H39        -5.6066    0.3277   -2.6788 H         1 <0>         0.4792
     83 H40        -6.7696    1.5821   -2.9737 H         1 <0>         0.4819
     84 H41        -4.3678    4.2231   -3.6185 H         1 <0>         0.4802
     85 H42        -6.0604    3.8326   -3.5158 H         1 <0>         0.4826
     86 H43         0.8216    0.7626    0.7549 H         1 <0>         0.3101
     87 H44        -4.7231   -2.7191    2.1790 H         1 <0>         0.3087
     88 H45        -3.2407    0.8418   -2.8107 H         1 <0>         0.4846
     89 H46       -12.0198   -4.5188   -0.7260 H         1 <0>         0.4194
     90 H47         1.8515   -6.8926    0.0654 H         1 <0>         0.4036
     91 H48         1.0115    3.3975   -1.0313 H         1 <0>         0.4114
     92 H49        -6.1819   -3.5045   -1.9474 H         1 <0>         0.3944
@<TRIPOS>BOND
     1    1    3 ar
     2    1    5 ar
     3    2    4 ar
     4    2    5 ar
     5    3    6 ar
     6    4    6 ar
     7    5   21 1
     8    6   40 1
     9    7   15 1
    10    7   34 am
    11    7   37 2
    12    8   27 1
    13    8   31 am
    14    8   38 2
    15    9   28 1
    16    9   35 am
    17    9   39 2
    18   10   32 1
    19   10   33 1
    20   10   36 1
    21   11   12 1
    22   11   16 1
    23   12   18 1
    24   13   15 1
    25   13   16 1
    26   14   17 1
    27   14   18 1
    28   15   31 1
    29   16   17 1
    30   17   31 1
    31   18   41 1
    32   19   29 1
    33   20   29 1
    34   21   28 1
    35   22   23 1
    36   22   25 1
    37   23   30 1
    38   24   27 1
    39   24   29 1
    40   25   36 1
    41   26   30 1
    42   26   42 1
    43   27   35 1
    44   28   43 1
    45   30   34 1
    46    1   44 1
    47    2   45 1
    48    3   46 1
    49    4   47 1
    50   11   48 1
    51   11   49 1
    52   12   50 1
    53   12   51 1
    54   13   52 1
    55   13   53 1
    56   14   54 1
    57   14   55 1
    58   15   56 1
    59   16   57 1
    60   17   58 1
    61   18   59 1
    62   19   60 1
    63   19   61 1
    64   19   62 1
    65   20   63 1
    66   20   64 1
    67   20   65 1
    68   21   66 1
    69   21   67 1
    70   22   68 1
    71   22   69 1
    72   23   70 1
    73   23   71 1
    74   24   72 1
    75   24   73 1
    76   25   74 1
    77   25   75 1
    78   26   76 1
    79   26   77 1
    80   27   78 1
    81   28   79 1
    82   29   80 1
    83   30   81 1
    84   32   82 1
    85   32   83 1
    86   33   84 1
    87   33   85 1
    88   34   86 1
    89   35   87 1
    90   36   88 1
    91   40   89 1
    92   41   90 1
    93   42   91 1
    94   43   92 1
@<TRIPOS>MOLECULE
1a2c_ligand_22
   92    94     0     0     0
SMALL
USER_CHARGES

mmff94s_NoEstat = 106.47
@<TRIPOS>ATOM
      1 C1         -8.1123   -5.1215    0.2464 C.ar      1 <0>        -0.0708
      2 C2         -6.5169   -6.0095   -1.3358 C.ar      1 <0>        -0.0872
      3 C3         -9.1310   -5.8431   -0.3759 C.ar      1 <0>        -0.2241
      4 C4         -7.5356   -6.7311   -1.9580 C.ar      1 <0>        -0.1600
      5 C5         -6.8190   -5.2144   -0.2419 C.ar      1 <0>        -0.1356
      6 C6         -8.8427   -6.6480   -1.4781 C.ar      1 <0>         0.1290
      7 C7         -0.0512   -1.0561    0.2993 C.2       1 <0>         0.6664
      8 C8         -1.8469   -3.0457    2.1630 C.2       1 <0>         0.6651
      9 C9         -4.1811   -2.4610    0.1870 C.2       1 <0>         0.6454
     10 C10        -2.7746    6.0237    0.0845 C.cat     1 <0>         0.6349
     11 C11         2.5186   -3.1911    0.6823 C.3       1 <0>        -0.0642
     12 C12         2.4580   -4.6414    0.2376 C.3       1 <0>        -0.0747
     13 C13         1.4874   -1.4827    2.2418 C.3       1 <0>        -0.0873
     14 C14         0.4946   -5.0934    1.7133 C.3       1 <0>        -0.1371
     15 C15         0.0412   -1.4176    1.7503 C.3       1 <0>         0.0360
     16 C16         1.8865   -2.9529    2.0632 C.3       1 <0>        -0.0720
     17 C17         0.5665   -3.7001    2.3454 C.3       1 <0>         0.1201
     18 C18         1.0248   -5.1525    0.2868 C.3       1 <0>         0.1453
     19 C19        -5.3726   -0.5418    3.1302 C.3       1 <0>        -0.0968
     20 C20        -3.4397    1.0389    2.9738 C.3       1 <0>        -0.0986
     21 C21        -5.7160   -4.4337    0.4322 C.3       1 <0>        -0.0191
     22 C22        -1.0374    2.7415   -0.6235 C.3       1 <0>        -0.1009
     23 C23         0.2513    2.2726   -1.3090 C.3       1 <0>        -0.0942
     24 C24        -2.9973   -1.3585    3.5851 C.3       1 <0>        -0.0988
     25 C25        -1.1758    4.2607   -0.6924 C.3       1 <0>         0.1966
     26 C26         1.7383    0.3016   -2.0469 C.3       1 <0>         0.1128
     27 C27        -2.7865   -1.8644    2.1628 C.3       1 <0>         0.0786
     28 C28        -5.5432   -3.0384   -0.1771 C.3       1 <0>         0.0744
     29 C29        -3.9969   -0.1898    3.6979 C.3       1 <0>        -0.0678
     30 C30         0.4555    0.7445   -1.3388 C.3       1 <0>         0.1065
     31 N1         -0.4979   -2.7598    1.9615 N.am      1 <0>        -0.4315
     32 N2         -3.9558    6.3783    0.7278 N.pl3     1 <0>        -0.8671
     33 N3         -1.9667    7.0223   -0.4484 N.pl3     1 <0>        -0.8581
     34 N4          0.4455    0.1980   -0.0008 N.am      1 <0>        -0.5687
     35 N5         -3.9799   -2.3853    1.5634 N.am      1 <0>        -0.5746
     36 N6         -2.3904    4.6766   -0.0323 N.pl3     1 <0>        -0.7533
     37 O1         -0.5362   -1.8555   -0.4928 O.2       1 <0>        -0.5843
     38 O2         -2.2998   -4.1783    2.3409 O.2       1 <0>        -0.6812
     39 O3         -3.3708   -2.0954   -0.6616 O.2       1 <0>        -0.5788
     40 O4         -9.8364   -7.3534   -2.0842 O.3       1 <0>        -0.4938
     41 O5          0.9879   -6.5072   -0.1510 O.3       1 <0>        -0.6030
     42 O6          2.8703    0.8436   -1.3793 O.3       1 <0>        -0.5860
     43 O7         -6.5451   -2.1786    0.3468 O.3       1 <0>        -0.6021
     44 H1         -8.3466   -4.4971    1.1042 H         1 <0>         0.1412
     45 H2         -5.5013   -6.0806   -1.7164 H         1 <0>         0.1451
     46 H3        -10.1470   -5.7743    0.0027 H         1 <0>         0.1336
     47 H4         -7.3045   -7.3572   -2.8158 H         1 <0>         0.1567
     48 H5          3.5627   -2.8549    0.7003 H         1 <0>         0.0649
     49 H6          2.0259   -2.5829   -0.0837 H         1 <0>         0.0476
     50 H7          2.8567   -4.7427   -0.7790 H         1 <0>         0.0641
     51 H8          3.1032   -5.2618    0.8729 H         1 <0>         0.0484
     52 H9          2.1569   -0.7868    1.7257 H         1 <0>         0.0596
     53 H10         1.5124   -1.2395    3.3116 H         1 <0>         0.0757
     54 H11         1.0921   -5.7802    2.3299 H         1 <0>         0.0782
     55 H12        -0.5175   -5.5090    1.7393 H         1 <0>         0.0812
     56 H13        -0.5378   -0.6778    2.3126 H         1 <0>         0.0731
     57 H14         2.6304   -3.2407    2.8169 H         1 <0>         0.0511
     58 H15         0.4523   -3.8218    3.4319 H         1 <0>         0.0753
     59 H16         0.3841   -4.5700   -0.3844 H         1 <0>         0.0427
     60 H17        -6.0375    0.3284    3.1563 H         1 <0>         0.0450
     61 H18        -5.8542   -1.3328    3.7128 H         1 <0>         0.0406
     62 H19        -5.2988   -0.8789    2.0908 H         1 <0>         0.0274
     63 H20        -3.3028    0.8425    1.9049 H         1 <0>         0.0476
     64 H21        -4.1178    1.8926    3.0773 H         1 <0>         0.0170
     65 H22        -2.4708    1.3315    3.3922 H         1 <0>         0.0477
     66 H23        -4.7767   -4.9973    0.3545 H         1 <0>         0.0814
     67 H24        -5.9411   -4.3740    1.5044 H         1 <0>         0.0685
     68 H25        -1.9092    2.2808   -1.1025 H         1 <0>         0.1016
     69 H26        -1.0467    2.4234    0.4259 H         1 <0>         0.0660
     70 H27         1.1110    2.7323   -0.8028 H         1 <0>         0.0512
     71 H28         0.2685    2.6560   -2.3373 H         1 <0>         0.0454
     72 H29        -2.0302   -1.0518    4.0061 H         1 <0>         0.0575
     73 H30        -3.3514   -2.1846    4.2177 H         1 <0>         0.0743
     74 H31        -1.2027    4.5928   -1.7356 H         1 <0>         0.0662
     75 H32        -0.3220    4.7463   -0.2087 H         1 <0>         0.0622
     76 H33         1.7614    0.6251   -3.0928 H         1 <0>         0.0321
     77 H34         1.8289   -0.7905   -2.0281 H         1 <0>         0.0204
     78 H35        -2.3647   -1.1082    1.5019 H         1 <0>         0.0749
     79 H36        -5.6447   -3.0594   -1.2687 H         1 <0>         0.0719
     80 H37        -4.1195    0.0762    4.7551 H         1 <0>         0.0609
     81 H38        -0.3978    0.3245   -1.8868 H         1 <0>         0.1063
     82 H39        -4.5782    5.6828    1.1306 H         1 <0>         0.4792
     83 H40        -4.2329    7.3536    0.8111 H         1 <0>         0.4819
     84 H41        -1.0966    6.7983   -0.9251 H         1 <0>         0.4802
     85 H42        -2.2244    8.0035   -0.3744 H         1 <0>         0.4826
     86 H43         0.8216    0.7626    0.7549 H         1 <0>         0.3101
     87 H44        -4.7231   -2.7191    2.1790 H         1 <0>         0.3087
     88 H45        -3.0238    3.9804    0.3791 H         1 <0>         0.4846
     89 H46       -10.6756   -6.8692   -2.0272 H         1 <0>         0.4194
     90 H47         1.8515   -6.8926    0.0654 H         1 <0>         0.4036
     91 H48         2.9636    1.7601   -1.6856 H         1 <0>         0.4114
     92 H49        -7.2229   -2.7477    0.7466 H         1 <0>         0.3944
@<TRIPOS>BOND
     1    1    3 ar
     2    1    5 ar
     3    2    4 ar
     4    2    5 ar
     5    3    6 ar
     6    4    6 ar
     7    5   21 1
     8    6   40 1
     9    7   15 1
    10    7   34 am
    11    7   37 2
    12    8   27 1
    13    8   31 am
    14    8   38 2
    15    9   28 1
    16    9   35 am
    17    9   39 2
    18   10   32 1
    19   10   33 1
    20   10   36 1
    21   11   12 1
    22   11   16 1
    23   12   18 1
    24   13   15 1
    25   13   16 1
    26   14   17 1
    27   14   18 1
    28   15   31 1
    29   16   17 1
    30   17   31 1
    31   18   41 1
    32   19   29 1
    33   20   29 1
    34   21   28 1
    35   22   23 1
    36   22   25 1
    37   23   30 1
    38   24   27 1
    39   24   29 1
    40   25   36 1
    41   26   30 1
    42   26   42 1
    43   27   35 1
    44   28   43 1
    45   30   34 1
    46    1   44 1
    47    2   45 1
    48    3   46 1
    49    4   47 1
    50   11   48 1
    51   11   49 1
    52   12   50 1
    53   12   51 1
    54   13   52 1
    55   13   53 1
    56   14   54 1
    57   14   55 1
    58   15   56 1
    59   16   57 1
    60   17   58 1
    61   18   59 1
    62   19   60 1
    63   19   61 1
    64   19   62 1
    65   20   63 1
    66   20   64 1
    67   20   65 1
    68   21   66 1
    69   21   67 1
    70   22   68 1
    71   22   69 1
    72   23   70 1
    73   23   71 1
    74   24   72 1
    75   24   73 1
    76   25   74 1
    77   25   75 1
    78   26   76 1
    79   26   77 1
    80   27   78 1
    81   28   79 1
    82   29   80 1
    83   30   81 1
    84   32   82 1
    85   32   83 1
    86   33   84 1
    87   33   85 1
    88   34   86 1
    89   35   87 1
    90   36   88 1
    91   40   89 1
    92   41   90 1
    93   42   91 1
    94   43   92 1
@<TRIPOS>MOLECULE
1a2c_ligand_23
   92    94     0     0     0
SMALL
USER_CHARGES

mmff94s_NoEstat = 106.53
@<TRIPOS>ATOM
      1 C1         -7.9689   -3.8418   -2.3194 C.ar      1 <0>        -0.0708
      2 C2         -8.3571   -1.6716   -1.3311 C.ar      1 <0>        -0.0872
      3 C3         -9.3420   -4.0030   -2.5045 C.ar      1 <0>        -0.2241
      4 C4         -9.7301   -1.8328   -1.5162 C.ar      1 <0>        -0.1600
      5 C5         -7.4949   -2.6782   -1.7352 C.ar      1 <0>        -0.1356
      6 C6        -10.2227   -2.9986   -2.1029 C.ar      1 <0>         0.1290
      7 C7         -0.0512   -1.0561    0.2993 C.2       1 <0>         0.6664
      8 C8         -1.8469   -3.0457    2.1630 C.2       1 <0>         0.6651
      9 C9         -4.1811   -2.4610    0.1870 C.2       1 <0>         0.6454
     10 C10        -3.0191    0.2705   -4.2937 C.cat     1 <0>         0.6349
     11 C11         2.5186   -3.1911    0.6823 C.3       1 <0>        -0.0642
     12 C12         2.4580   -4.6414    0.2376 C.3       1 <0>        -0.0747
     13 C13         1.4874   -1.4827    2.2418 C.3       1 <0>        -0.0873
     14 C14         0.4946   -5.0934    1.7133 C.3       1 <0>        -0.1371
     15 C15         0.0412   -1.4176    1.7503 C.3       1 <0>         0.0360
     16 C16         1.8865   -2.9529    2.0632 C.3       1 <0>        -0.0720
     17 C17         0.5665   -3.7001    2.3454 C.3       1 <0>         0.1201
     18 C18         1.0248   -5.1525    0.2868 C.3       1 <0>         0.1453
     19 C19        -5.3726   -0.5418    3.1302 C.3       1 <0>        -0.0968
     20 C20        -3.4397    1.0389    2.9738 C.3       1 <0>        -0.0986
     21 C21        -6.0083   -2.5034   -1.5355 C.3       1 <0>        -0.0191
     22 C22        -1.8968    1.7896   -1.0188 C.3       1 <0>        -0.1009
     23 C23        -0.4337    2.0012   -1.4250 C.3       1 <0>        -0.0942
     24 C24        -2.9973   -1.3585    3.5851 C.3       1 <0>        -0.0988
     25 C25        -2.5538    0.7074   -1.8729 C.3       1 <0>         0.1966
     26 C26         1.9058    0.9774   -1.7696 C.3       1 <0>         0.1128
     27 C27        -2.7865   -1.8644    2.1628 C.3       1 <0>         0.0786
     28 C28        -5.5432   -3.0384   -0.1771 C.3       1 <0>         0.0744
     29 C29        -3.9969   -0.1898    3.6979 C.3       1 <0>        -0.0678
     30 C30         0.4555    0.7445   -1.3388 C.3       1 <0>         0.1065
     31 N1         -0.4979   -2.7598    1.9615 N.am      1 <0>        -0.4315
     32 N2         -2.9572    0.6743   -5.6233 N.pl3     1 <0>        -0.8671
     33 N3         -3.5946   -0.9571   -3.9842 N.pl3     1 <0>        -0.8581
     34 N4          0.4455    0.1980   -0.0008 N.am      1 <0>        -0.5687
     35 N5         -3.9799   -2.3853    1.5634 N.am      1 <0>        -0.5746
     36 N6         -2.5100    1.0832   -3.2660 N.pl3     1 <0>        -0.7533
     37 O1         -0.5362   -1.8555   -0.4928 O.2       1 <0>        -0.5843
     38 O2         -2.2998   -4.1783    2.3409 O.2       1 <0>        -0.6812
     39 O3         -3.3708   -2.0954   -0.6616 O.2       1 <0>        -0.5788
     40 O4        -11.5624   -3.1552   -2.2851 O.3       1 <0>        -0.4938
     41 O5          0.9879   -6.5072   -0.1510 O.3       1 <0>        -0.6030
     42 O6          2.5087    1.9525   -0.9290 O.3       1 <0>        -0.5860
     43 O7         -5.4208   -4.4514   -0.2549 O.3       1 <0>        -0.6021
     44 H1         -7.2907   -4.6298   -2.6353 H         1 <0>         0.1412
     45 H2         -7.9823   -0.7598   -0.8733 H         1 <0>         0.1451
     46 H3         -9.7194   -4.9132   -2.9622 H         1 <0>         0.1336
     47 H4        -10.4112   -1.0463   -1.2021 H         1 <0>         0.1567
     48 H5          3.5627   -2.8549    0.7003 H         1 <0>         0.0649
     49 H6          2.0259   -2.5829   -0.0837 H         1 <0>         0.0476
     50 H7          2.8567   -4.7427   -0.7790 H         1 <0>         0.0641
     51 H8          3.1032   -5.2618    0.8729 H         1 <0>         0.0484
     52 H9          2.1569   -0.7868    1.7257 H         1 <0>         0.0596
     53 H10         1.5124   -1.2395    3.3116 H         1 <0>         0.0757
     54 H11         1.0921   -5.7802    2.3299 H         1 <0>         0.0782
     55 H12        -0.5175   -5.5090    1.7393 H         1 <0>         0.0812
     56 H13        -0.5378   -0.6778    2.3126 H         1 <0>         0.0731
     57 H14         2.6304   -3.2407    2.8169 H         1 <0>         0.0511
     58 H15         0.4523   -3.8218    3.4319 H         1 <0>         0.0753
     59 H16         0.3841   -4.5700   -0.3844 H         1 <0>         0.0427
     60 H17        -6.0375    0.3284    3.1563 H         1 <0>         0.0450
     61 H18        -5.8542   -1.3328    3.7128 H         1 <0>         0.0406
     62 H19        -5.2988   -0.8789    2.0908 H         1 <0>         0.0274
     63 H20        -3.3028    0.8425    1.9049 H         1 <0>         0.0476
     64 H21        -4.1178    1.8926    3.0773 H         1 <0>         0.0170
     65 H22        -2.4708    1.3315    3.3922 H         1 <0>         0.0477
     66 H23        -5.7555   -1.4385   -1.6272 H         1 <0>         0.0814
     67 H24        -5.4878   -3.0064   -2.3601 H         1 <0>         0.0685
     68 H25        -1.9576    1.4985    0.0363 H         1 <0>         0.1016
     69 H26        -2.4590    2.7253   -1.1230 H         1 <0>         0.0660
     70 H27         0.0021    2.7844   -0.7898 H         1 <0>         0.0512
     71 H28        -0.4008    2.3932   -2.4497 H         1 <0>         0.0454
     72 H29        -2.0302   -1.0518    4.0061 H         1 <0>         0.0575
     73 H30        -3.3514   -2.1846    4.2177 H         1 <0>         0.0743
     74 H31        -3.5974    0.5673   -1.5719 H         1 <0>         0.0662
     75 H32        -2.0372   -0.2493   -1.7445 H         1 <0>         0.0622
     76 H33         1.9749    1.3199   -2.8074 H         1 <0>         0.0321
     77 H34         2.4858    0.0519   -1.6791 H         1 <0>         0.0204
     78 H35        -2.3647   -1.1082    1.5019 H         1 <0>         0.0749
     79 H36        -6.2595   -2.7988    0.6177 H         1 <0>         0.0719
     80 H37        -4.1195    0.0762    4.7551 H         1 <0>         0.0609
     81 H38         0.0149    0.0012   -2.0158 H         1 <0>         0.1063
     82 H39        -2.5475    1.5637   -5.8964 H         1 <0>         0.4792
     83 H40        -3.3266    0.0853   -6.3660 H         1 <0>         0.4819
     84 H41        -3.6562   -1.2831   -3.0227 H         1 <0>         0.4802
     85 H42        -3.9682   -1.5619   -4.7117 H         1 <0>         0.4826
     86 H43         0.8216    0.7626    0.7549 H         1 <0>         0.3101
     87 H44        -4.7231   -2.7191    2.1790 H         1 <0>         0.3087
     88 H45        -2.0959    1.9792   -3.5507 H         1 <0>         0.4846
     89 H46       -11.8054   -4.0915   -2.2056 H         1 <0>         0.4194
     90 H47         1.8515   -6.8926    0.0654 H         1 <0>         0.4036
     91 H48         2.2238    2.8203   -1.2580 H         1 <0>         0.4114
     92 H49        -5.9013   -4.7317   -1.0509 H         1 <0>         0.3944
@<TRIPOS>BOND
     1    1    3 ar
     2    1    5 ar
     3    2    4 ar
     4    2    5 ar
     5    3    6 ar
     6    4    6 ar
     7    5   21 1
     8    6   40 1
     9    7   15 1
    10    7   34 am
    11    7   37 2
    12    8   27 1
    13    8   31 am
    14    8   38 2
    15    9   28 1
    16    9   35 am
    17    9   39 2
    18   10   32 1
    19   10   33 1
    20   10   36 1
    21   11   12 1
    22   11   16 1
    23   12   18 1
    24   13   15 1
    25   13   16 1
    26   14   17 1
    27   14   18 1
    28   15   31 1
    29   16   17 1
    30   17   31 1
    31   18   41 1
    32   19   29 1
    33   20   29 1
    34   21   28 1
    35   22   23 1
    36   22   25 1
    37   23   30 1
    38   24   27 1
    39   24   29 1
    40   25   36 1
    41   26   30 1
    42   26   42 1
    43   27   35 1
    44   28   43 1
    45   30   34 1
    46    1   44 1
    47    2   45 1
    48    3   46 1
    49    4   47 1
    50   11   48 1
    51   11   49 1
    52   12   50 1
    53   12   51 1
    54   13   52 1
    55   13   53 1
    56   14   54 1
    57   14   55 1
    58   15   56 1
    59   16   57 1
    60   17   58 1
    61   18   59 1
    62   19   60 1
    63   19   61 1
    64   19   62 1
    65   20   63 1
    66   20   64 1
    67   20   65 1
    68   21   66 1
    69   21   67 1
    70   22   68 1
    71   22   69 1
    72   23   70 1
    73   23   71 1
    74   24   72 1
    75   24   73 1
    76   25   74 1
    77   25   75 1
    78   26   76 1
    79   26   77 1
    80   27   78 1
    81   28   79 1
    82   29   80 1
    83   30   81 1
    84   32   82 1
    85   32   83 1
    86   33   84 1
    87   33   85 1
    88   34   86 1
    89   35   87 1
    90   36   88 1
    91   40   89 1
    92   41   90 1
    93   42   91 1
    94   43   92 1
@<TRIPOS>MOLECULE
1a2c_ligand_24
   92    94     0     0     0
SMALL
USER_CHARGES

mmff94s_NoEstat = 106.62
@<TRIPOS>ATOM
      1 C1         -7.6915   -4.5534   -2.2285 C.ar      1 <0>        -0.0708
      2 C2         -7.8704   -2.1497   -2.3935 C.ar      1 <0>        -0.0872
      3 C3         -9.0245   -4.6794   -2.6196 C.ar      1 <0>        -0.2241
      4 C4         -9.2033   -2.2757   -2.7846 C.ar      1 <0>        -0.1600
      5 C5         -7.1323   -3.2903   -2.1207 C.ar      1 <0>        -0.1356
      6 C6         -9.7804   -3.5406   -2.8977 C.ar      1 <0>         0.1290
      7 C7         -0.0512   -1.0561    0.2993 C.2       1 <0>         0.6664
      8 C8         -1.8469   -3.0457    2.1630 C.2       1 <0>         0.6651
      9 C9         -4.1811   -2.4610    0.1870 C.2       1 <0>         0.6454
     10 C10         5.9740   -1.8739   -3.0762 C.cat     1 <0>         0.6349
     11 C11         2.5186   -3.1911    0.6823 C.3       1 <0>        -0.0642
     12 C12         2.4580   -4.6414    0.2376 C.3       1 <0>        -0.0747
     13 C13         1.4874   -1.4827    2.2418 C.3       1 <0>        -0.0873
     14 C14         0.4946   -5.0934    1.7133 C.3       1 <0>        -0.1371
     15 C15         0.0412   -1.4176    1.7503 C.3       1 <0>         0.0360
     16 C16         1.8865   -2.9529    2.0632 C.3       1 <0>        -0.0720
     17 C17         0.5665   -3.7001    2.3454 C.3       1 <0>         0.1201
     18 C18         1.0248   -5.1525    0.2868 C.3       1 <0>         0.1453
     19 C19        -5.3726   -0.5418    3.1302 C.3       1 <0>        -0.0968
     20 C20        -3.4397    1.0389    2.9738 C.3       1 <0>        -0.0986
     21 C21        -5.6890   -3.1540   -1.6980 C.3       1 <0>        -0.0191
     22 C22         2.8091   -0.2380   -1.8118 C.3       1 <0>        -0.1009
     23 C23         1.3524   -0.0970   -2.2688 C.3       1 <0>        -0.0942
     24 C24        -2.9973   -1.3585    3.5851 C.3       1 <0>        -0.0988
     25 C25         3.6273   -1.0396   -2.8217 C.3       1 <0>         0.1966
     26 C26        -0.9878    0.8875   -1.8280 C.3       1 <0>         0.1128
     27 C27        -2.7865   -1.8644    2.1628 C.3       1 <0>         0.0786
     28 C28        -5.5432   -3.0384   -0.1771 C.3       1 <0>         0.0744
     29 C29        -3.9969   -0.1898    3.6979 C.3       1 <0>        -0.0678
     30 C30         0.4555    0.7445   -1.3388 C.3       1 <0>         0.1065
     31 N1         -0.4979   -2.7598    1.9615 N.am      1 <0>        -0.4315
     32 N2          7.2767   -1.9679   -2.5976 N.pl3     1 <0>        -0.8671
     33 N3          5.6472   -2.4923   -4.2783 N.pl3     1 <0>        -0.8581
     34 N4          0.4455    0.1980   -0.0008 N.am      1 <0>        -0.5687
     35 N5         -3.9799   -2.3853    1.5634 N.am      1 <0>        -0.5746
     36 N6          4.9906   -1.1661   -2.3638 N.pl3     1 <0>        -0.7533
     37 O1         -0.5362   -1.8555   -0.4928 O.2       1 <0>        -0.5843
     38 O2         -2.2998   -4.1783    2.3409 O.2       1 <0>        -0.6812
     39 O3         -3.3708   -2.0954   -0.6616 O.2       1 <0>        -0.5788
     40 O4        -11.0807   -3.6636   -3.2809 O.3       1 <0>        -0.4938
     41 O5          0.9879   -6.5072   -0.1510 O.3       1 <0>        -0.6030
     42 O6         -1.7287    1.6906   -0.9186 O.3       1 <0>        -0.5860
     43 O7         -5.6445   -4.3341    0.3961 O.3       1 <0>        -0.6021
     44 H1         -7.1107   -5.4463   -2.0139 H         1 <0>         0.1412
     45 H2         -7.4289   -1.1601   -2.3083 H         1 <0>         0.1451
     46 H3         -9.4682   -5.6674   -2.7060 H         1 <0>         0.1336
     47 H4         -9.7869   -1.3847   -3.0007 H         1 <0>         0.1567
     48 H5          3.5627   -2.8549    0.7003 H         1 <0>         0.0649
     49 H6          2.0259   -2.5829   -0.0837 H         1 <0>         0.0476
     50 H7          2.8567   -4.7427   -0.7790 H         1 <0>         0.0641
     51 H8          3.1032   -5.2618    0.8729 H         1 <0>         0.0484
     52 H9          2.1569   -0.7868    1.7257 H         1 <0>         0.0596
     53 H10         1.5124   -1.2395    3.3116 H         1 <0>         0.0757
     54 H11         1.0921   -5.7802    2.3299 H         1 <0>         0.0782
     55 H12        -0.5175   -5.5090    1.7393 H         1 <0>         0.0812
     56 H13        -0.5378   -0.6778    2.3126 H         1 <0>         0.0731
     57 H14         2.6304   -3.2407    2.8169 H         1 <0>         0.0511
     58 H15         0.4523   -3.8218    3.4319 H         1 <0>         0.0753
     59 H16         0.3841   -4.5700   -0.3844 H         1 <0>         0.0427
     60 H17        -6.0375    0.3284    3.1563 H         1 <0>         0.0450
     61 H18        -5.8542   -1.3328    3.7128 H         1 <0>         0.0406
     62 H19        -5.2988   -0.8789    2.0908 H         1 <0>         0.0274
     63 H20        -3.3028    0.8425    1.9049 H         1 <0>         0.0476
     64 H21        -4.1178    1.8926    3.0773 H         1 <0>         0.0170
     65 H22        -2.4708    1.3315    3.3922 H         1 <0>         0.0477
     66 H23        -5.2527   -2.2721   -2.1860 H         1 <0>         0.0814
     67 H24        -5.1328   -4.0165   -2.0862 H         1 <0>         0.0685
     68 H25         3.2637    0.7519   -1.6883 H         1 <0>         0.1016
     69 H26         2.8542   -0.7324   -0.8340 H         1 <0>         0.0660
     70 H27         0.9126   -1.0986   -2.3693 H         1 <0>         0.0512
     71 H28         1.3348    0.3408   -3.2751 H         1 <0>         0.0454
     72 H29        -2.0302   -1.0518    4.0061 H         1 <0>         0.0575
     73 H30        -3.3514   -2.1846    4.2177 H         1 <0>         0.0743
     74 H31         3.6213   -0.5411   -3.7968 H         1 <0>         0.0662
     75 H32         3.2008   -2.0392   -2.9543 H         1 <0>         0.0622
     76 H33        -1.4861   -0.0829   -1.9233 H         1 <0>         0.0321
     77 H34        -1.0136    1.3790   -2.8073 H         1 <0>         0.0204
     78 H35        -2.3647   -1.1082    1.5019 H         1 <0>         0.0749
     79 H36        -6.3286   -2.4083    0.2569 H         1 <0>         0.0719
     80 H37        -4.1195    0.0762    4.7551 H         1 <0>         0.0609
     81 H38         0.9010    1.7469   -1.2960 H         1 <0>         0.1063
     82 H39         7.5616   -1.5307   -1.7253 H         1 <0>         0.4792
     83 H40         7.9876   -2.4801   -3.1146 H         1 <0>         0.4819
     84 H41         4.7045   -2.4434   -4.6571 H         1 <0>         0.4802
     85 H42         6.3424   -3.0107   -4.8098 H         1 <0>         0.4826
     86 H43         0.8216    0.7626    0.7549 H         1 <0>         0.3101
     87 H44        -4.7231   -2.7191    2.1790 H         1 <0>         0.3087
     88 H45         5.2862   -0.7291   -1.4825 H         1 <0>         0.4846
     89 H46       -11.4843   -4.4380   -2.8573 H         1 <0>         0.4194
     90 H47         1.8515   -6.8926    0.0654 H         1 <0>         0.4036
     91 H48        -1.9874    1.1133   -0.1822 H         1 <0>         0.4114
     92 H49        -6.0303   -4.9121   -0.2823 H         1 <0>         0.3944
@<TRIPOS>BOND
     1    1    3 ar
     2    1    5 ar
     3    2    4 ar
     4    2    5 ar
     5    3    6 ar
     6    4    6 ar
     7    5   21 1
     8    6   40 1
     9    7   15 1
    10    7   34 am
    11    7   37 2
    12    8   27 1
    13    8   31 am
    14    8   38 2
    15    9   28 1
    16    9   35 am
    17    9   39 2
    18   10   32 1
    19   10   33 1
    20   10   36 1
    21   11   12 1
    22   11   16 1
    23   12   18 1
    24   13   15 1
    25   13   16 1
    26   14   17 1
    27   14   18 1
    28   15   31 1
    29   16   17 1
    30   17   31 1
    31   18   41 1
    32   19   29 1
    33   20   29 1
    34   21   28 1
    35   22   23 1
    36   22   25 1
    37   23   30 1
    38   24   27 1
    39   24   29 1
    40   25   36 1
    41   26   30 1
    42   26   42 1
    43   27   35 1
    44   28   43 1
    45   30   34 1
    46    1   44 1
    47    2   45 1
    48    3   46 1
    49    4   47 1
    50   11   48 1
    51   11   49 1
    52   12   50 1
    53   12   51 1
    54   13   52 1
    55   13   53 1
    56   14   54 1
    57   14   55 1
    58   15   56 1
    59   16   57 1
    60   17   58 1
    61   18   59 1
    62   19   60 1
    63   19   61 1
    64   19   62 1
    65   20   63 1
    66   20   64 1
    67   20   65 1
    68   21   66 1
    69   21   67 1
    70   22   68 1
    71   22   69 1
    72   23   70 1
    73   23   71 1
    74   24   72 1
    75   24   73 1
    76   25   74 1
    77   25   75 1
    78   26   76 1
    79   26   77 1
    80   27   78 1
    81   28   79 1
    82   29   80 1
    83   30   81 1
    84   32   82 1
    85   32   83 1
    86   33   84 1
    87   33   85 1
    88   34   86 1
    89   35   87 1
    90   36   88 1
    91   40   89 1
    92   41   90 1
    93   42   91 1
    94   43   92 1
@<TRIPOS>MOLECULE
1a2c_ligand_25
   92    94     0     0     0
SMALL
USER_CHARGES

mmff94s_NoEstat = 106.71
@<TRIPOS>ATOM
      1 C1         -8.2899   -0.7257   -3.8297 C.ar      1 <0>        -0.0708
      2 C2         -8.8083   -1.0629   -1.4942 C.ar      1 <0>        -0.0872
      3 C3         -9.6238   -0.9646   -4.1603 C.ar      1 <0>        -0.2241
      4 C4        -10.1422   -1.3018   -1.8248 C.ar      1 <0>        -0.1600
      5 C5         -7.9001   -0.7780   -2.5012 C.ar      1 <0>        -0.1356
      6 C6        -10.5500   -1.2526   -3.1579 C.ar      1 <0>         0.1290
      7 C7         -0.1674   -1.0853   -0.0424 C.2       1 <0>         0.6664
      8 C8         -2.5997   -3.1326    0.7250 C.2       1 <0>         0.6651
      9 C9         -4.3299   -1.6044   -1.3634 C.2       1 <0>         0.6454
     10 C10         1.0706    5.8665    1.9853 C.cat     1 <0>         0.6349
     11 C11         2.0445   -3.7524    0.2047 C.3       1 <0>        -0.0642
     12 C12         2.1951   -5.1517   -0.3975 C.3       1 <0>        -0.0747
     13 C13         0.7864   -2.3272    1.9103 C.3       1 <0>        -0.0873
     14 C14        -0.3466   -4.9962   -0.4055 C.3       1 <0>        -0.1371
     15 C15        -0.4770   -1.8334    1.2187 C.3       1 <0>         0.0360
     16 C16         1.0305   -3.7327    1.3503 C.3       1 <0>        -0.0720
     17 C17        -0.3661   -4.2312    0.9284 C.3       1 <0>         0.1201
     18 C18         0.8694   -5.9135   -0.5141 C.3       1 <0>         0.1453
     19 C19        -5.9631   -0.4404    1.7581 C.3       1 <0>        -0.0968
     20 C20        -3.8887    0.7550    2.4841 C.3       1 <0>        -0.0986
     21 C21        -6.4561   -0.5187   -2.1432 C.3       1 <0>        -0.0191
     22 C22        -0.3657    2.9388    0.0730 C.3       1 <0>        -0.1009
     23 C23         0.9718    2.4190   -0.4671 C.3       1 <0>        -0.0942
     24 C24        -3.8619   -1.7555    2.3678 C.3       1 <0>        -0.0988
     25 C25        -0.2710    4.4161    0.4476 C.3       1 <0>         0.1966
     26 C26         2.3035    0.4585   -1.4784 C.3       1 <0>         0.1128
     27 C27        -3.3800   -1.8574    0.9254 C.3       1 <0>         0.0786
     28 C28        -5.6231   -1.8048   -2.1437 C.3       1 <0>         0.0744
     29 C29        -4.7285   -0.5135    2.6578 C.3       1 <0>        -0.0678
     30 C30         0.9627    0.9465   -0.9241 C.3       1 <0>         0.1065
     31 N1         -1.2224   -3.0398    0.8850 N.am      1 <0>        -0.4315
     32 N2          2.0525    6.0013    2.9614 N.pl3     1 <0>        -0.8671
     33 N3          0.4090    7.0011    1.5281 N.pl3     1 <0>        -0.8581
     34 N4          0.5562    0.0753    0.1551 N.am      1 <0>        -0.5687
     35 N5         -4.4491   -1.9660   -0.0233 N.am      1 <0>        -0.5746
     36 N6          0.7415    4.6053    1.4592 N.pl3     1 <0>        -0.7533
     37 O1         -0.5544   -1.5275   -1.1177 O.2       1 <0>        -0.5843
     38 O2         -3.1933   -4.1752    0.4418 O.2       1 <0>        -0.6812
     39 O3         -3.3092   -1.1565   -1.8810 O.2       1 <0>        -0.5788
     40 O4        -11.8519   -1.4841   -3.4804 O.3       1 <0>        -0.4938
     41 O5          0.7872   -6.8901    0.5248 O.3       1 <0>        -0.6030
     42 O6          3.3063    0.5601   -0.4760 O.3       1 <0>        -0.5860
     43 O7         -5.2872   -2.1367   -3.4832 O.3       1 <0>        -0.6021
     44 H1         -7.5756   -0.5023   -4.6175 H         1 <0>         0.1412
     45 H2         -8.4997   -1.1031   -0.4528 H         1 <0>         0.1451
     46 H3         -9.9352   -0.9247   -5.2004 H         1 <0>         0.1336
     47 H4        -10.8593   -1.5248   -1.0392 H         1 <0>         0.1567
     48 H5          3.0220   -3.4003    0.5555 H         1 <0>         0.0649
     49 H6          1.7363   -3.0584   -0.5866 H         1 <0>         0.0476
     50 H7          2.6388   -5.0399   -1.3944 H         1 <0>         0.0641
     51 H8          2.9088   -5.7297    0.2024 H         1 <0>         0.0484
     52 H9          1.6439   -1.6583    1.7836 H         1 <0>         0.0596
     53 H10         0.5887   -2.4119    2.9867 H         1 <0>         0.0757
     54 H11        -1.2632   -5.5927   -0.4872 H         1 <0>         0.0782
     55 H12        -0.3526   -4.2949   -1.2498 H         1 <0>         0.0812
     56 H13        -1.0651   -1.1731    1.8629 H         1 <0>         0.0731
     57 H14         1.4245   -4.3763    2.1480 H         1 <0>         0.0511
     58 H15        -0.7725   -4.8823    1.7135 H         1 <0>         0.0753
     59 H16         0.8433   -6.4624   -1.4612 H         1 <0>         0.0427
     60 H17        -6.5181    0.4873    1.9352 H         1 <0>         0.0450
     61 H18        -6.6497   -1.2692    1.9547 H         1 <0>         0.0406
     62 H19        -5.6850   -0.4702    0.6992 H         1 <0>         0.0274
     63 H20        -3.5277    0.8553    1.4548 H         1 <0>         0.0476
     64 H21        -4.4764    1.6472    2.7254 H         1 <0>         0.0170
     65 H22        -3.0188    0.7404    3.1493 H         1 <0>         0.0477
     66 H23        -6.4103   -0.0409   -1.1554 H         1 <0>         0.0814
     67 H24        -6.0521    0.2168   -2.8502 H         1 <0>         0.0685
     68 H25        -1.1525    2.8103   -0.6795 H         1 <0>         0.1016
     69 H26        -0.6706    2.3600    0.9531 H         1 <0>         0.0660
     70 H27         1.7402    2.5418    0.3082 H         1 <0>         0.0512
     71 H28         1.2882    3.0521   -1.3060 H         1 <0>         0.0454
     72 H29        -2.9928   -1.7573    3.0396 H         1 <0>         0.0575
     73 H30        -4.4407   -2.6540    2.6237 H         1 <0>         0.0743
     74 H31        -1.2325    4.7733    0.8314 H         1 <0>         0.0662
     75 H32        -0.0162    5.0192   -0.4299 H         1 <0>         0.0622
     76 H33         2.6215    1.0387   -2.3510 H         1 <0>         0.0321
     77 H34         2.2342   -0.5935   -1.7781 H         1 <0>         0.0204
     78 H35        -2.7366   -1.0282    0.6336 H         1 <0>         0.0749
     79 H36        -6.1781   -2.6452   -1.7102 H         1 <0>         0.0719
     80 H37        -5.0656   -0.5471    3.7011 H         1 <0>         0.0609
     81 H38         0.2159    0.8710   -1.7251 H         1 <0>         0.1063
     82 H39         2.5606    5.2004    3.3268 H         1 <0>         0.4792
     83 H40         2.2892    6.9148    3.3417 H         1 <0>         0.4819
     84 H41        -0.3141    6.9385    0.8155 H         1 <0>         0.4802
     85 H42         0.6317    7.9238    1.8938 H         1 <0>         0.4826
     86 H43         0.8147    0.3282    1.1041 H         1 <0>         0.3101
     87 H44        -5.3471   -2.3283    0.3008 H         1 <0>         0.3087
     88 H45         1.2610    3.8016    1.8323 H         1 <0>         0.4846
     89 H46       -11.9124   -1.9085   -4.3510 H         1 <0>         0.4194
     90 H47         1.3049   -6.5470    1.2701 H         1 <0>         0.4036
     91 H48         3.5968    1.4864   -0.4636 H         1 <0>         0.4114
     92 H49        -5.8765   -1.6203   -4.0570 H         1 <0>         0.3944
@<TRIPOS>BOND
     1    1    3 ar
     2    1    5 ar
     3    2    4 ar
     4    2    5 ar
     5    3    6 ar
     6    4    6 ar
     7    5   21 1
     8    6   40 1
     9    7   15 1
    10    7   34 am
    11    7   37 2
    12    8   27 1
    13    8   31 am
    14    8   38 2
    15    9   28 1
    16    9   35 am
    17    9   39 2
    18   10   32 1
    19   10   33 1
    20   10   36 1
    21   11   12 1
    22   11   16 1
    23   12   18 1
    24   13   15 1
    25   13   16 1
    26   14   17 1
    27   14   18 1
    28   15   31 1
    29   16   17 1
    30   17   31 1
    31   18   41 1
    32   19   29 1
    33   20   29 1
    34   21   28 1
    35   22   23 1
    36   22   25 1
    37   23   30 1
    38   24   27 1
    39   24   29 1
    40   25   36 1
    41   26   30 1
    42   26   42 1
    43   27   35 1
    44   28   43 1
    45   30   34 1
    46    1   44 1
    47    2   45 1
    48    3   46 1
    49    4   47 1
    50   11   48 1
    51   11   49 1
    52   12   50 1
    53   12   51 1
    54   13   52 1
    55   13   53 1
    56   14   54 1
    57   14   55 1
    58   15   56 1
    59   16   57 1
    60   17   58 1
    61   18   59 1
    62   19   60 1
    63   19   61 1
    64   19   62 1
    65   20   63 1
    66   20   64 1
    67   20   65 1
    68   21   66 1
    69   21   67 1
    70   22   68 1
    71   22   69 1
    72   23   70 1
    73   23   71 1
    74   24   72 1
    75   24   73 1
    76   25   74 1
    77   25   75 1
    78   26   76 1
    79   26   77 1
    80   27   78 1
    81   28   79 1
    82   29   80 1
    83   30   81 1
    84   32   82 1
    85   32   83 1
    86   33   84 1
    87   33   85 1
    88   34   86 1
    89   35   87 1
    90   36   88 1
    91   40   89 1
    92   41   90 1
    93   42   91 1
    94   43   92 1
@<TRIPOS>MOLECULE
1a2c_ligand_26
   92    94     0     0     0
SMALL
USER_CHARGES

mmff94s_NoEstat = 106.74
@<TRIPOS>ATOM
      1 C1         -8.6272   -2.8492   -1.4308 C.ar      1 <0>        -0.0708
      2 C2         -8.6280   -2.4747    0.9560 C.ar      1 <0>        -0.0872
      3 C3         -9.9370   -3.3232   -1.3568 C.ar      1 <0>        -0.2241
      4 C4         -9.9377   -2.9488    1.0300 C.ar      1 <0>        -0.1600
      5 C5         -7.9904   -2.4312   -0.2734 C.ar      1 <0>        -0.1356
      6 C6        -10.5923   -3.3731   -0.1264 C.ar      1 <0>         0.1290
      7 C7         -0.0512   -1.0561    0.2993 C.2       1 <0>         0.6664
      8 C8         -1.8469   -3.0457    2.1630 C.2       1 <0>         0.6651
      9 C9         -4.1811   -2.4610    0.1870 C.2       1 <0>         0.6454
     10 C10        -0.1924    6.4494   -4.0524 C.cat     1 <0>         0.6349
     11 C11         2.5186   -3.1911    0.6823 C.3       1 <0>        -0.0642
     12 C12         2.4580   -4.6414    0.2376 C.3       1 <0>        -0.0747
     13 C13         1.4874   -1.4827    2.2418 C.3       1 <0>        -0.0873
     14 C14         0.4946   -5.0934    1.7133 C.3       1 <0>        -0.1371
     15 C15         0.0412   -1.4176    1.7503 C.3       1 <0>         0.0360
     16 C16         1.8865   -2.9529    2.0632 C.3       1 <0>        -0.0720
     17 C17         0.5665   -3.7001    2.3454 C.3       1 <0>         0.1201
     18 C18         1.0248   -5.1525    0.2868 C.3       1 <0>         0.1453
     19 C19        -5.3726   -0.5418    3.1302 C.3       1 <0>        -0.0968
     20 C20        -3.4397    1.0389    2.9738 C.3       1 <0>        -0.0986
     21 C21        -6.5727   -1.9173   -0.3536 C.3       1 <0>        -0.0191
     22 C22         0.1864    2.9452   -2.6852 C.3       1 <0>        -0.1009
     23 C23         0.2513    2.2726   -1.3090 C.3       1 <0>        -0.0942
     24 C24        -2.9973   -1.3585    3.5851 C.3       1 <0>        -0.0988
     25 C25         0.0377    4.4591   -2.5512 C.3       1 <0>         0.1966
     26 C26         1.7383    0.3016   -2.0469 C.3       1 <0>         0.1128
     27 C27        -2.7865   -1.8644    2.1628 C.3       1 <0>         0.0786
     28 C28        -5.5432   -3.0384   -0.1771 C.3       1 <0>         0.0744
     29 C29        -3.9969   -0.1898    3.6979 C.3       1 <0>        -0.0678
     30 C30         0.4555    0.7445   -1.3388 C.3       1 <0>         0.1065
     31 N1         -0.4979   -2.7598    1.9615 N.am      1 <0>        -0.4315
     32 N2         -0.2513    6.9915   -5.3321 N.pl3     1 <0>        -0.8671
     33 N3         -0.2955    7.2945   -2.9528 N.pl3     1 <0>        -0.8581
     34 N4          0.4455    0.1980   -0.0008 N.am      1 <0>        -0.5687
     35 N5         -3.9799   -2.3853    1.5634 N.am      1 <0>        -0.5746
     36 N6         -0.0310    5.0665   -3.8590 N.pl3     1 <0>        -0.7533
     37 O1         -0.5362   -1.8555   -0.4928 O.2       1 <0>        -0.5843
     38 O2         -2.2998   -4.1783    2.3409 O.2       1 <0>        -0.6812
     39 O3         -3.3708   -2.0954   -0.6616 O.2       1 <0>        -0.5788
     40 O4        -11.8709   -3.8342   -0.0545 O.3       1 <0>        -0.4938
     41 O5          0.9879   -6.5072   -0.1510 O.3       1 <0>        -0.6030
     42 O6          2.8703    0.8436   -1.3793 O.3       1 <0>        -0.5860
     43 O7         -5.4138   -3.7436   -1.4033 O.3       1 <0>        -0.6021
     44 H1         -8.1249   -2.8142   -2.3937 H         1 <0>         0.1412
     45 H2         -8.1259   -2.1460    1.8623 H         1 <0>         0.1451
     46 H3        -10.4414   -3.6521   -2.2611 H         1 <0>         0.1336
     47 H4        -10.4433   -2.9843    1.9914 H         1 <0>         0.1567
     48 H5          3.5627   -2.8549    0.7003 H         1 <0>         0.0649
     49 H6          2.0259   -2.5829   -0.0837 H         1 <0>         0.0476
     50 H7          2.8567   -4.7427   -0.7790 H         1 <0>         0.0641
     51 H8          3.1032   -5.2618    0.8729 H         1 <0>         0.0484
     52 H9          2.1569   -0.7868    1.7257 H         1 <0>         0.0596
     53 H10         1.5124   -1.2395    3.3116 H         1 <0>         0.0757
     54 H11         1.0921   -5.7802    2.3299 H         1 <0>         0.0782
     55 H12        -0.5175   -5.5090    1.7393 H         1 <0>         0.0812
     56 H13        -0.5378   -0.6778    2.3126 H         1 <0>         0.0731
     57 H14         2.6304   -3.2407    2.8169 H         1 <0>         0.0511
     58 H15         0.4523   -3.8218    3.4319 H         1 <0>         0.0753
     59 H16         0.3841   -4.5700   -0.3844 H         1 <0>         0.0427
     60 H17        -6.0375    0.3284    3.1563 H         1 <0>         0.0450
     61 H18        -5.8542   -1.3328    3.7128 H         1 <0>         0.0406
     62 H19        -5.2988   -0.8789    2.0908 H         1 <0>         0.0274
     63 H20        -3.3028    0.8425    1.9049 H         1 <0>         0.0476
     64 H21        -4.1178    1.8926    3.0773 H         1 <0>         0.0170
     65 H22        -2.4708    1.3315    3.3922 H         1 <0>         0.0477
     66 H23        -6.4251   -1.1465    0.4146 H         1 <0>         0.0814
     67 H24        -6.4443   -1.4079   -1.3169 H         1 <0>         0.0685
     68 H25         1.0953    2.7243   -3.2569 H         1 <0>         0.1016
     69 H26        -0.6566    2.5474   -3.2629 H         1 <0>         0.0660
     70 H27        -0.6751    2.4928   -0.7614 H         1 <0>         0.0512
     71 H28         1.0606    2.7304   -0.7258 H         1 <0>         0.0454
     72 H29        -2.0302   -1.0518    4.0061 H         1 <0>         0.0575
     73 H30        -3.3514   -2.1846    4.2177 H         1 <0>         0.0743
     74 H31         0.8899    4.8778   -2.0056 H         1 <0>         0.0662
     75 H32        -0.8713    4.7077   -1.9937 H         1 <0>         0.0622
     76 H33         1.7614    0.6251   -3.0928 H         1 <0>         0.0321
     77 H34         1.8289   -0.7905   -2.0281 H         1 <0>         0.0204
     78 H35        -2.3647   -1.1082    1.5019 H         1 <0>         0.0749
     79 H36        -5.8508   -3.7504    0.5980 H         1 <0>         0.0719
     80 H37        -4.1195    0.0762    4.7551 H         1 <0>         0.0609
     81 H38        -0.3978    0.3245   -1.8868 H         1 <0>         0.1063
     82 H39        -0.1784    6.4130   -6.1648 H         1 <0>         0.4792
     83 H40        -0.3675    7.9927   -5.4705 H         1 <0>         0.4819
     84 H41        -0.2564    6.9316   -2.0034 H         1 <0>         0.4802
     85 H42        -0.4140    8.2980   -3.0692 H         1 <0>         0.4826
     86 H43         0.8216    0.7626    0.7549 H         1 <0>         0.3101
     87 H44        -4.7231   -2.7191    2.1790 H         1 <0>         0.3087
     88 H45         0.0398    4.4889   -4.7055 H         1 <0>         0.4846
     89 H46       -12.0198   -4.5188   -0.7260 H         1 <0>         0.4194
     90 H47         1.8515   -6.8926    0.0654 H         1 <0>         0.4036
     91 H48         2.9636    1.7601   -1.6856 H         1 <0>         0.4114
     92 H49        -6.1819   -3.5045   -1.9474 H         1 <0>         0.3944
@<TRIPOS>BOND
     1    1    3 ar
     2    1    5 ar
     3    2    4 ar
     4    2    5 ar
     5    3    6 ar
     6    4    6 ar
     7    5   21 1
     8    6   40 1
     9    7   15 1
    10    7   34 am
    11    7   37 2
    12    8   27 1
    13    8   31 am
    14    8   38 2
    15    9   28 1
    16    9   35 am
    17    9   39 2
    18   10   32 1
    19   10   33 1
    20   10   36 1
    21   11   12 1
    22   11   16 1
    23   12   18 1
    24   13   15 1
    25   13   16 1
    26   14   17 1
    27   14   18 1
    28   15   31 1
    29   16   17 1
    30   17   31 1
    31   18   41 1
    32   19   29 1
    33   20   29 1
    34   21   28 1
    35   22   23 1
    36   22   25 1
    37   23   30 1
    38   24   27 1
    39   24   29 1
    40   25   36 1
    41   26   30 1
    42   26   42 1
    43   27   35 1
    44   28   43 1
    45   30   34 1
    46    1   44 1
    47    2   45 1
    48    3   46 1
    49    4   47 1
    50   11   48 1
    51   11   49 1
    52   12   50 1
    53   12   51 1
    54   13   52 1
    55   13   53 1
    56   14   54 1
    57   14   55 1
    58   15   56 1
    59   16   57 1
    60   17   58 1
    61   18   59 1
    62   19   60 1
    63   19   61 1
    64   19   62 1
    65   20   63 1
    66   20   64 1
    67   20   65 1
    68   21   66 1
    69   21   67 1
    70   22   68 1
    71   22   69 1
    72   23   70 1
    73   23   71 1
    74   24   72 1
    75   24   73 1
    76   25   74 1
    77   25   75 1
    78   26   76 1
    79   26   77 1
    80   27   78 1
    81   28   79 1
    82   29   80 1
    83   30   81 1
    84   32   82 1
    85   32   83 1
    86   33   84 1
    87   33   85 1
    88   34   86 1
    89   35   87 1
    90   36   88 1
    91   40   89 1
    92   41   90 1
    93   42   91 1
    94   43   92 1
@<TRIPOS>MOLECULE
1a2c_ligand_27
   92    94     0     0     0
SMALL
USER_CHARGES

mmff94s_NoEstat = 106.79
@<TRIPOS>ATOM
      1 C1         -7.9689   -3.8418   -2.3194 C.ar      1 <0>        -0.0708
      2 C2         -8.3571   -1.6716   -1.3311 C.ar      1 <0>        -0.0872
      3 C3         -9.3420   -4.0030   -2.5045 C.ar      1 <0>        -0.2241
      4 C4         -9.7301   -1.8328   -1.5162 C.ar      1 <0>        -0.1600
      5 C5         -7.4949   -2.6782   -1.7352 C.ar      1 <0>        -0.1356
      6 C6        -10.2227   -2.9986   -2.1029 C.ar      1 <0>         0.1290
      7 C7         -0.0512   -1.0561    0.2993 C.2       1 <0>         0.6664
      8 C8         -1.8469   -3.0457    2.1630 C.2       1 <0>         0.6651
      9 C9         -4.1811   -2.4610    0.1870 C.2       1 <0>         0.6454
     10 C10        -3.5369    3.9433   -5.1013 C.cat     1 <0>         0.6349
     11 C11         2.5186   -3.1911    0.6823 C.3       1 <0>        -0.0642
     12 C12         2.4580   -4.6414    0.2376 C.3       1 <0>        -0.0747
     13 C13         1.4874   -1.4827    2.2418 C.3       1 <0>        -0.0873
     14 C14         0.4946   -5.0934    1.7133 C.3       1 <0>        -0.1371
     15 C15         0.0412   -1.4176    1.7503 C.3       1 <0>         0.0360
     16 C16         1.8865   -2.9529    2.0632 C.3       1 <0>        -0.0720
     17 C17         0.5665   -3.7001    2.3454 C.3       1 <0>         0.1201
     18 C18         1.0248   -5.1525    0.2868 C.3       1 <0>         0.1453
     19 C19        -5.3726   -0.5418    3.1302 C.3       1 <0>        -0.0968
     20 C20        -3.4397    1.0389    2.9738 C.3       1 <0>        -0.0986
     21 C21        -6.0083   -2.5034   -1.5355 C.3       1 <0>        -0.0191
     22 C22        -0.9951    2.0137   -3.0747 C.3       1 <0>        -0.1009
     23 C23        -0.8794    1.4488   -1.6540 C.3       1 <0>        -0.0942
     24 C24        -2.9973   -1.3585    3.5851 C.3       1 <0>        -0.0988
     25 C25        -2.3255    2.7368   -3.2725 C.3       1 <0>         0.1966
     26 C26         1.6856    1.6412   -1.5001 C.3       1 <0>         0.1128
     27 C27        -2.7865   -1.8644    2.1628 C.3       1 <0>         0.0786
     28 C28        -5.5432   -3.0384   -0.1771 C.3       1 <0>         0.0744
     29 C29        -3.9969   -0.1898    3.6979 C.3       1 <0>        -0.0678
     30 C30         0.4555    0.7445   -1.3388 C.3       1 <0>         0.1065
     31 N1         -0.4979   -2.7598    1.9615 N.am      1 <0>        -0.4315
     32 N2         -3.5770    4.4221   -6.4067 N.pl3     1 <0>        -0.8671
     33 N3         -4.6286    4.1576   -4.2668 N.pl3     1 <0>        -0.8581
     34 N4          0.4455    0.1980   -0.0008 N.am      1 <0>        -0.5687
     35 N5         -3.9799   -2.3853    1.5634 N.am      1 <0>        -0.5746
     36 N6         -2.4134    3.2499   -4.6190 N.pl3     1 <0>        -0.7533
     37 O1         -0.5362   -1.8555   -0.4928 O.2       1 <0>        -0.5843
     38 O2         -2.2998   -4.1783    2.3409 O.2       1 <0>        -0.6812
     39 O3         -3.3708   -2.0954   -0.6616 O.2       1 <0>        -0.5788
     40 O4        -11.5624   -3.1552   -2.2851 O.3       1 <0>        -0.4938
     41 O5          0.9879   -6.5072   -0.1510 O.3       1 <0>        -0.6030
     42 O6          1.5971    2.7470   -0.6113 O.3       1 <0>        -0.5860
     43 O7         -5.4208   -4.4514   -0.2549 O.3       1 <0>        -0.6021
     44 H1         -7.2907   -4.6298   -2.6353 H         1 <0>         0.1412
     45 H2         -7.9823   -0.7598   -0.8733 H         1 <0>         0.1451
     46 H3         -9.7194   -4.9132   -2.9622 H         1 <0>         0.1336
     47 H4        -10.4112   -1.0463   -1.2021 H         1 <0>         0.1567
     48 H5          3.5627   -2.8549    0.7003 H         1 <0>         0.0649
     49 H6          2.0259   -2.5829   -0.0837 H         1 <0>         0.0476
     50 H7          2.8567   -4.7427   -0.7790 H         1 <0>         0.0641
     51 H8          3.1032   -5.2618    0.8729 H         1 <0>         0.0484
     52 H9          2.1569   -0.7868    1.7257 H         1 <0>         0.0596
     53 H10         1.5124   -1.2395    3.3116 H         1 <0>         0.0757
     54 H11         1.0921   -5.7802    2.3299 H         1 <0>         0.0782
     55 H12        -0.5175   -5.5090    1.7393 H         1 <0>         0.0812
     56 H13        -0.5378   -0.6778    2.3126 H         1 <0>         0.0731
     57 H14         2.6304   -3.2407    2.8169 H         1 <0>         0.0511
     58 H15         0.4523   -3.8218    3.4319 H         1 <0>         0.0753
     59 H16         0.3841   -4.5700   -0.3844 H         1 <0>         0.0427
     60 H17        -6.0375    0.3284    3.1563 H         1 <0>         0.0450
     61 H18        -5.8542   -1.3328    3.7128 H         1 <0>         0.0406
     62 H19        -5.2988   -0.8789    2.0908 H         1 <0>         0.0274
     63 H20        -3.3028    0.8425    1.9049 H         1 <0>         0.0476
     64 H21        -4.1178    1.8926    3.0773 H         1 <0>         0.0170
     65 H22        -2.4708    1.3315    3.3922 H         1 <0>         0.0477
     66 H23        -5.7555   -1.4385   -1.6272 H         1 <0>         0.0814
     67 H24        -5.4878   -3.0064   -2.3601 H         1 <0>         0.0685
     68 H25        -0.1747    2.7139   -3.2707 H         1 <0>         0.1016
     69 H26        -0.9072    1.2071   -3.8124 H         1 <0>         0.0660
     70 H27        -1.7000    0.7382   -1.4859 H         1 <0>         0.0512
     71 H28        -1.0340    2.2618   -0.9330 H         1 <0>         0.0454
     72 H29        -2.0302   -1.0518    4.0061 H         1 <0>         0.0575
     73 H30        -3.3514   -2.1846    4.2177 H         1 <0>         0.0743
     74 H31        -2.4148    3.5682   -2.5653 H         1 <0>         0.0662
     75 H32        -3.1633    2.0548   -3.0947 H         1 <0>         0.0622
     76 H33         1.7842    2.0214   -2.5223 H         1 <0>         0.0321
     77 H34         2.5988    1.0866   -1.2555 H         1 <0>         0.0204
     78 H35        -2.3647   -1.1082    1.5019 H         1 <0>         0.0749
     79 H36        -6.2595   -2.7988    0.6177 H         1 <0>         0.0719
     80 H37        -4.1195    0.0762    4.7551 H         1 <0>         0.0609
     81 H38         0.5463   -0.0881   -2.0483 H         1 <0>         0.1063
     82 H39        -2.8022    4.2908   -7.0514 H         1 <0>         0.4792
     83 H40        -4.3907    4.9244   -6.7542 H         1 <0>         0.4819
     84 H41        -4.6325    3.8212   -3.3069 H         1 <0>         0.4802
     85 H42        -5.4525    4.6557   -4.5950 H         1 <0>         0.4826
     86 H43         0.8216    0.7626    0.7549 H         1 <0>         0.3101
     87 H44        -4.7231   -2.7191    2.1790 H         1 <0>         0.3087
     88 H45        -1.6358    3.1197   -5.2774 H         1 <0>         0.4846
     89 H46       -11.8054   -4.0915   -2.2056 H         1 <0>         0.4194
     90 H47         1.8515   -6.8926    0.0654 H         1 <0>         0.4036
     91 H48         1.0115    3.3975   -1.0313 H         1 <0>         0.4114
     92 H49        -5.9013   -4.7317   -1.0509 H         1 <0>         0.3944
@<TRIPOS>BOND
     1    1    3 ar
     2    1    5 ar
     3    2    4 ar
     4    2    5 ar
     5    3    6 ar
     6    4    6 ar
     7    5   21 1
     8    6   40 1
     9    7   15 1
    10    7   34 am
    11    7   37 2
    12    8   27 1
    13    8   31 am
    14    8   38 2
    15    9   28 1
    16    9   35 am
    17    9   39 2
    18   10   32 1
    19   10   33 1
    20   10   36 1
    21   11   12 1
    22   11   16 1
    23   12   18 1
    24   13   15 1
    25   13   16 1
    26   14   17 1
    27   14   18 1
    28   15   31 1
    29   16   17 1
    30   17   31 1
    31   18   41 1
    32   19   29 1
    33   20   29 1
    34   21   28 1
    35   22   23 1
    36   22   25 1
    37   23   30 1
    38   24   27 1
    39   24   29 1
    40   25   36 1
    41   26   30 1
    42   26   42 1
    43   27   35 1
    44   28   43 1
    45   30   34 1
    46    1   44 1
    47    2   45 1
    48    3   46 1
    49    4   47 1
    50   11   48 1
    51   11   49 1
    52   12   50 1
    53   12   51 1
    54   13   52 1
    55   13   53 1
    56   14   54 1
    57   14   55 1
    58   15   56 1
    59   16   57 1
    60   17   58 1
    61   18   59 1
    62   19   60 1
    63   19   61 1
    64   19   62 1
    65   20   63 1
    66   20   64 1
    67   20   65 1
    68   21   66 1
    69   21   67 1
    70   22   68 1
    71   22   69 1
    72   23   70 1
    73   23   71 1
    74   24   72 1
    75   24   73 1
    76   25   74 1
    77   25   75 1
    78   26   76 1
    79   26   77 1
    80   27   78 1
    81   28   79 1
    82   29   80 1
    83   30   81 1
    84   32   82 1
    85   32   83 1
    86   33   84 1
    87   33   85 1
    88   34   86 1
    89   35   87 1
    90   36   88 1
    91   40   89 1
    92   41   90 1
    93   42   91 1
    94   43   92 1
@<TRIPOS>MOLECULE
1a2c_ligand_28
   92    94     0     0     0
SMALL
USER_CHARGES

mmff94s_NoEstat = 106.87
@<TRIPOS>ATOM
      1 C1         -7.6468    0.6813   -1.2254 C.ar      1 <0>        -0.0708
      2 C2         -5.3486    1.4183   -1.3348 C.ar      1 <0>        -0.0872
      3 C3         -7.9154    1.6609   -0.2695 C.ar      1 <0>        -0.2241
      4 C4         -5.6172    2.3979   -0.3789 C.ar      1 <0>        -0.1600
      5 C5         -6.3670    0.5731   -1.7453 C.ar      1 <0>        -0.1356
      6 C6         -6.9006    2.5192    0.1538 C.ar      1 <0>         0.1290
      7 C7         -0.1674   -1.0853   -0.0424 C.2       1 <0>         0.6664
      8 C8         -2.5997   -3.1326    0.7250 C.2       1 <0>         0.6651
      9 C9         -4.3299   -1.6044   -1.3634 C.2       1 <0>         0.6454
     10 C10        -2.9457    5.7520    0.4759 C.cat     1 <0>         0.6349
     11 C11         2.0445   -3.7524    0.2047 C.3       1 <0>        -0.0642
     12 C12         2.1951   -5.1517   -0.3975 C.3       1 <0>        -0.0747
     13 C13         0.7864   -2.3272    1.9103 C.3       1 <0>        -0.0873
     14 C14        -0.3466   -4.9962   -0.4055 C.3       1 <0>        -0.1371
     15 C15        -0.4770   -1.8334    1.2187 C.3       1 <0>         0.0360
     16 C16         1.0305   -3.7327    1.3503 C.3       1 <0>        -0.0720
     17 C17        -0.3661   -4.2312    0.9284 C.3       1 <0>         0.1201
     18 C18         0.8694   -5.9135   -0.5141 C.3       1 <0>         0.1453
     19 C19        -5.9631   -0.4404    1.7581 C.3       1 <0>        -0.0968
     20 C20        -3.8887    0.7550    2.4841 C.3       1 <0>        -0.0986
     21 C21        -6.0764   -0.4870   -2.7807 C.3       1 <0>        -0.0191
     22 C22        -0.5019    2.9290   -0.1163 C.3       1 <0>        -0.1009
     23 C23        -0.1464    1.9654   -1.2545 C.3       1 <0>        -0.0942
     24 C24        -3.8619   -1.7555    2.3678 C.3       1 <0>        -0.0988
     25 C25        -1.6433    3.8598   -0.5198 C.3       1 <0>         0.1966
     26 C26         2.3079    1.5842   -0.5680 C.3       1 <0>         0.1128
     27 C27        -3.3800   -1.8574    0.9254 C.3       1 <0>         0.0786
     28 C28        -5.6231   -1.8048   -2.1437 C.3       1 <0>         0.0744
     29 C29        -4.7285   -0.5135    2.6578 C.3       1 <0>        -0.0678
     30 C30         0.9627    0.9465   -0.9241 C.3       1 <0>         0.1065
     31 N1         -1.2224   -3.0398    0.8850 N.am      1 <0>        -0.4315
     32 N2         -3.2102    6.5988    1.5472 N.pl3     1 <0>        -0.8671
     33 N3         -3.6798    5.8928   -0.6969 N.pl3     1 <0>        -0.8581
     34 N4          0.5562    0.0753    0.1551 N.am      1 <0>        -0.5687
     35 N5         -4.4491   -1.9660   -0.0233 N.am      1 <0>        -0.5746
     36 N6         -1.9516    4.7622    0.5641 N.pl3     1 <0>        -0.7533
     37 O1         -0.5544   -1.5275   -1.1177 O.2       1 <0>        -0.5843
     38 O2         -3.1933   -4.1752    0.4418 O.2       1 <0>        -0.6812
     39 O3         -3.3092   -1.1565   -1.8810 O.2       1 <0>        -0.5788
     40 O4         -7.1632    3.4762    1.0854 O.3       1 <0>        -0.4938
     41 O5          0.7872   -6.8901    0.5248 O.3       1 <0>        -0.6030
     42 O6          3.2667    0.5701   -0.2978 O.3       1 <0>        -0.5860
     43 O7         -5.3797   -2.7546   -3.1713 O.3       1 <0>        -0.6021
     44 H1         -8.4437    0.0171   -1.5488 H         1 <0>         0.1412
     45 H2         -4.3456    1.3313   -1.7446 H         1 <0>         0.1451
     46 H3         -8.9171    1.7505    0.1415 H         1 <0>         0.1336
     47 H4         -4.8226    3.0643   -0.0538 H         1 <0>         0.1567
     48 H5          3.0220   -3.4003    0.5555 H         1 <0>         0.0649
     49 H6          1.7363   -3.0584   -0.5866 H         1 <0>         0.0476
     50 H7          2.6388   -5.0399   -1.3944 H         1 <0>         0.0641
     51 H8          2.9088   -5.7297    0.2024 H         1 <0>         0.0484
     52 H9          1.6439   -1.6583    1.7836 H         1 <0>         0.0596
     53 H10         0.5887   -2.4119    2.9867 H         1 <0>         0.0757
     54 H11        -1.2632   -5.5927   -0.4872 H         1 <0>         0.0782
     55 H12        -0.3526   -4.2949   -1.2498 H         1 <0>         0.0812
     56 H13        -1.0651   -1.1731    1.8629 H         1 <0>         0.0731
     57 H14         1.4245   -4.3763    2.1480 H         1 <0>         0.0511
     58 H15        -0.7725   -4.8823    1.7135 H         1 <0>         0.0753
     59 H16         0.8433   -6.4624   -1.4612 H         1 <0>         0.0427
     60 H17        -6.5181    0.4873    1.9352 H         1 <0>         0.0450
     61 H18        -6.6497   -1.2692    1.9547 H         1 <0>         0.0406
     62 H19        -5.6850   -0.4702    0.6992 H         1 <0>         0.0274
     63 H20        -3.5277    0.8553    1.4548 H         1 <0>         0.0476
     64 H21        -4.4764    1.6472    2.7254 H         1 <0>         0.0170
     65 H22        -3.0188    0.7404    3.1493 H         1 <0>         0.0477
     66 H23        -5.3046   -0.1164   -3.4686 H         1 <0>         0.0814
     67 H24        -6.9772   -0.6296   -3.3908 H         1 <0>         0.0685
     68 H25        -0.7979    2.3662    0.7766 H         1 <0>         0.1016
     69 H26         0.3738    3.5279    0.1617 H         1 <0>         0.0660
     70 H27         0.1630    2.5497   -2.1317 H         1 <0>         0.0512
     71 H28        -1.0510    1.4234   -1.5589 H         1 <0>         0.0454
     72 H29        -2.9928   -1.7573    3.0396 H         1 <0>         0.0575
     73 H30        -4.4407   -2.6540    2.6237 H         1 <0>         0.0743
     74 H31        -2.5377    3.2787   -0.7680 H         1 <0>         0.0662
     75 H32        -1.3680    4.4441   -1.4038 H         1 <0>         0.0622
     76 H33         2.2328    2.2366    0.3083 H         1 <0>         0.0321
     77 H34         2.6813    2.1842   -1.4058 H         1 <0>         0.0204
     78 H35        -2.7366   -1.0282    0.6336 H         1 <0>         0.0749
     79 H36        -6.3883   -2.2128   -1.4727 H         1 <0>         0.0719
     80 H37        -5.0656   -0.5471    3.7011 H         1 <0>         0.0609
     81 H38         1.1044    0.3339   -1.8239 H         1 <0>         0.1063
     82 H39        -2.7006    6.5315    2.4242 H         1 <0>         0.4792
     83 H40        -3.9305    7.3144    1.4821 H         1 <0>         0.4819
     84 H41        -3.5123    5.2906   -1.4992 H         1 <0>         0.4802
     85 H42        -4.4030    6.6029   -0.7833 H         1 <0>         0.4826
     86 H43         0.8147    0.3282    1.1041 H         1 <0>         0.3101
     87 H44        -5.3471   -2.3283    0.3008 H         1 <0>         0.3087
     88 H45        -1.4399    4.7022    1.4528 H         1 <0>         0.4846
     89 H46        -7.8429    3.1654    1.7044 H         1 <0>         0.4194
     90 H47         1.3049   -6.5470    1.2701 H         1 <0>         0.4036
     91 H48         3.1132    0.2758    0.6145 H         1 <0>         0.4114
     92 H49        -5.8026   -2.4127   -3.9759 H         1 <0>         0.3944
@<TRIPOS>BOND
     1    1    3 ar
     2    1    5 ar
     3    2    4 ar
     4    2    5 ar
     5    3    6 ar
     6    4    6 ar
     7    5   21 1
     8    6   40 1
     9    7   15 1
    10    7   34 am
    11    7   37 2
    12    8   27 1
    13    8   31 am
    14    8   38 2
    15    9   28 1
    16    9   35 am
    17    9   39 2
    18   10   32 1
    19   10   33 1
    20   10   36 1
    21   11   12 1
    22   11   16 1
    23   12   18 1
    24   13   15 1
    25   13   16 1
    26   14   17 1
    27   14   18 1
    28   15   31 1
    29   16   17 1
    30   17   31 1
    31   18   41 1
    32   19   29 1
    33   20   29 1
    34   21   28 1
    35   22   23 1
    36   22   25 1
    37   23   30 1
    38   24   27 1
    39   24   29 1
    40   25   36 1
    41   26   30 1
    42   26   42 1
    43   27   35 1
    44   28   43 1
    45   30   34 1
    46    1   44 1
    47    2   45 1
    48    3   46 1
    49    4   47 1
    50   11   48 1
    51   11   49 1
    52   12   50 1
    53   12   51 1
    54   13   52 1
    55   13   53 1
    56   14   54 1
    57   14   55 1
    58   15   56 1
    59   16   57 1
    60   17   58 1
    61   18   59 1
    62   19   60 1
    63   19   61 1
    64   19   62 1
    65   20   63 1
    66   20   64 1
    67   20   65 1
    68   21   66 1
    69   21   67 1
    70   22   68 1
    71   22   69 1
    72   23   70 1
    73   23   71 1
    74   24   72 1
    75   24   73 1
    76   25   74 1
    77   25   75 1
    78   26   76 1
    79   26   77 1
    80   27   78 1
    81   28   79 1
    82   29   80 1
    83   30   81 1
    84   32   82 1
    85   32   83 1
    86   33   84 1
    87   33   85 1
    88   34   86 1
    89   35   87 1
    90   36   88 1
    91   40   89 1
    92   41   90 1
    93   42   91 1
    94   43   92 1
@<TRIPOS>MOLECULE
1a2c_ligand_29
   92    94     0     0     0
SMALL
USER_CHARGES

mmff94s_NoEstat = 106.90
@<TRIPOS>ATOM
      1 C1         -7.5527   -1.5181   -4.8480 C.ar      1 <0>        -0.0708
      2 C2         -7.9255    0.3067   -3.3092 C.ar      1 <0>        -0.0872
      3 C3         -8.8536   -1.3766   -5.3310 C.ar      1 <0>        -0.2241
      4 C4         -9.2264    0.4482   -3.7921 C.ar      1 <0>        -0.1600
      5 C5         -7.1061   -0.6745   -3.8436 C.ar      1 <0>        -0.1356
      6 C6         -9.6905   -0.3934   -4.8030 C.ar      1 <0>         0.1290
      7 C7         -0.1674   -1.0853   -0.0424 C.2       1 <0>         0.6664
      8 C8         -2.5997   -3.1326    0.7250 C.2       1 <0>         0.6651
      9 C9         -4.3299   -1.6044   -1.3634 C.2       1 <0>         0.6454
     10 C10        -2.1232    5.5600   -2.2937 C.cat     1 <0>         0.6349
     11 C11         2.0445   -3.7524    0.2047 C.3       1 <0>        -0.0642
     12 C12         2.1951   -5.1517   -0.3975 C.3       1 <0>        -0.0747
     13 C13         0.7864   -2.3272    1.9103 C.3       1 <0>        -0.0873
     14 C14        -0.3466   -4.9962   -0.4055 C.3       1 <0>        -0.1371
     15 C15        -0.4770   -1.8334    1.2187 C.3       1 <0>         0.0360
     16 C16         1.0305   -3.7327    1.3503 C.3       1 <0>        -0.0720
     17 C17        -0.3661   -4.2312    0.9284 C.3       1 <0>         0.1201
     18 C18         0.8694   -5.9135   -0.5141 C.3       1 <0>         0.1453
     19 C19        -5.9631   -0.4404    1.7581 C.3       1 <0>        -0.0968
     20 C20        -3.8887    0.7550    2.4841 C.3       1 <0>        -0.0986
     21 C21        -5.6975   -0.8273   -3.3213 C.3       1 <0>        -0.0191
     22 C22        -0.5019    2.9290   -0.1163 C.3       1 <0>        -0.1009
     23 C23        -0.1464    1.9654   -1.2545 C.3       1 <0>        -0.0942
     24 C24        -3.8619   -1.7555    2.3678 C.3       1 <0>        -0.0988
     25 C25        -1.6433    3.8598   -0.5198 C.3       1 <0>         0.1966
     26 C26         2.3079    1.5842   -0.5680 C.3       1 <0>         0.1128
     27 C27        -3.3800   -1.8574    0.9254 C.3       1 <0>         0.0786
     28 C28        -5.6231   -1.8048   -2.1437 C.3       1 <0>         0.0744
     29 C29        -4.7285   -0.5135    2.6578 C.3       1 <0>        -0.0678
     30 C30         0.9627    0.9465   -0.9241 C.3       1 <0>         0.1065
     31 N1         -1.2224   -3.0398    0.8850 N.am      1 <0>        -0.4315
     32 N2         -1.7146    6.2845   -3.4086 N.pl3     1 <0>        -0.8671
     33 N3         -3.4018    5.7618   -1.7853 N.pl3     1 <0>        -0.8581
     34 N4          0.5562    0.0753    0.1551 N.am      1 <0>        -0.5687
     35 N5         -4.4491   -1.9660   -0.0233 N.am      1 <0>        -0.5746
     36 N6         -1.2645    4.6324   -1.6789 N.pl3     1 <0>        -0.7533
     37 O1         -0.5544   -1.5275   -1.1177 O.2       1 <0>        -0.5843
     38 O2         -3.1933   -4.1752    0.4418 O.2       1 <0>        -0.6812
     39 O3         -3.3092   -1.1565   -1.8810 O.2       1 <0>        -0.5788
     40 O4        -10.9594   -0.2543   -5.2754 O.3       1 <0>        -0.4938
     41 O5          0.7872   -6.8901    0.5248 O.3       1 <0>        -0.6030
     42 O6          3.2667    0.5701   -0.2978 O.3       1 <0>        -0.5860
     43 O7         -5.6385   -3.1336   -2.6450 O.3       1 <0>        -0.6021
     44 H1         -6.9082   -2.2870   -5.2653 H         1 <0>         0.1412
     45 H2         -7.5723    0.9672   -2.5215 H         1 <0>         0.1451
     46 H3         -9.2092   -2.0351   -6.1185 H         1 <0>         0.1336
     47 H4         -9.8734    1.2168   -3.3774 H         1 <0>         0.1567
     48 H5          3.0220   -3.4003    0.5555 H         1 <0>         0.0649
     49 H6          1.7363   -3.0584   -0.5866 H         1 <0>         0.0476
     50 H7          2.6388   -5.0399   -1.3944 H         1 <0>         0.0641
     51 H8          2.9088   -5.7297    0.2024 H         1 <0>         0.0484
     52 H9          1.6439   -1.6583    1.7836 H         1 <0>         0.0596
     53 H10         0.5887   -2.4119    2.9867 H         1 <0>         0.0757
     54 H11        -1.2632   -5.5927   -0.4872 H         1 <0>         0.0782
     55 H12        -0.3526   -4.2949   -1.2498 H         1 <0>         0.0812
     56 H13        -1.0651   -1.1731    1.8629 H         1 <0>         0.0731
     57 H14         1.4245   -4.3763    2.1480 H         1 <0>         0.0511
     58 H15        -0.7725   -4.8823    1.7135 H         1 <0>         0.0753
     59 H16         0.8433   -6.4624   -1.4612 H         1 <0>         0.0427
     60 H17        -6.5181    0.4873    1.9352 H         1 <0>         0.0450
     61 H18        -6.6497   -1.2692    1.9547 H         1 <0>         0.0406
     62 H19        -5.6850   -0.4702    0.6992 H         1 <0>         0.0274
     63 H20        -3.5277    0.8553    1.4548 H         1 <0>         0.0476
     64 H21        -4.4764    1.6472    2.7254 H         1 <0>         0.0170
     65 H22        -3.0188    0.7404    3.1493 H         1 <0>         0.0477
     66 H23        -5.3173    0.1573   -3.0178 H         1 <0>         0.0814
     67 H24        -5.0558   -1.1533   -4.1495 H         1 <0>         0.0685
     68 H25        -0.7979    2.3662    0.7766 H         1 <0>         0.1016
     69 H26         0.3738    3.5279    0.1617 H         1 <0>         0.0660
     70 H27         0.1630    2.5497   -2.1317 H         1 <0>         0.0512
     71 H28        -1.0510    1.4234   -1.5589 H         1 <0>         0.0454
     72 H29        -2.9928   -1.7573    3.0396 H         1 <0>         0.0575
     73 H30        -4.4407   -2.6540    2.6237 H         1 <0>         0.0743
     74 H31        -1.8861    4.5417    0.3020 H         1 <0>         0.0662
     75 H32        -2.5443    3.2834   -0.7535 H         1 <0>         0.0622
     76 H33         2.2328    2.2366    0.3083 H         1 <0>         0.0321
     77 H34         2.6813    2.1842   -1.4058 H         1 <0>         0.0204
     78 H35        -2.7366   -1.0282    0.6336 H         1 <0>         0.0749
     79 H36        -6.4753   -1.6838   -1.4644 H         1 <0>         0.0719
     80 H37        -5.0656   -0.5471    3.7011 H         1 <0>         0.0609
     81 H38         1.1044    0.3339   -1.8239 H         1 <0>         0.1063
     82 H39        -0.7891    6.1716   -3.8134 H         1 <0>         0.4792
     83 H40        -2.3370    6.9561   -3.8522 H         1 <0>         0.4819
     84 H41        -3.7326    5.2491   -0.9716 H         1 <0>         0.4802
     85 H42        -4.0403    6.4271   -2.2148 H         1 <0>         0.4826
     86 H43         0.8147    0.3282    1.1041 H         1 <0>         0.3101
     87 H44        -5.3471   -2.3283    0.3008 H         1 <0>         0.3087
     88 H45        -0.3319    4.5228   -2.0954 H         1 <0>         0.4846
     89 H46       -11.3134   -1.1161   -5.5473 H         1 <0>         0.4194
     90 H47         1.3049   -6.5470    1.2701 H         1 <0>         0.4036
     91 H48         3.1132    0.2758    0.6145 H         1 <0>         0.4114
     92 H49        -5.9469   -3.0835   -3.5645 H         1 <0>         0.3944
@<TRIPOS>BOND
     1    1    3 ar
     2    1    5 ar
     3    2    4 ar
     4    2    5 ar
     5    3    6 ar
     6    4    6 ar
     7    5   21 1
     8    6   40 1
     9    7   15 1
    10    7   34 am
    11    7   37 2
    12    8   27 1
    13    8   31 am
    14    8   38 2
    15    9   28 1
    16    9   35 am
    17    9   39 2
    18   10   32 1
    19   10   33 1
    20   10   36 1
    21   11   12 1
    22   11   16 1
    23   12   18 1
    24   13   15 1
    25   13   16 1
    26   14   17 1
    27   14   18 1
    28   15   31 1
    29   16   17 1
    30   17   31 1
    31   18   41 1
    32   19   29 1
    33   20   29 1
    34   21   28 1
    35   22   23 1
    36   22   25 1
    37   23   30 1
    38   24   27 1
    39   24   29 1
    40   25   36 1
    41   26   30 1
    42   26   42 1
    43   27   35 1
    44   28   43 1
    45   30   34 1
    46    1   44 1
    47    2   45 1
    48    3   46 1
    49    4   47 1
    50   11   48 1
    51   11   49 1
    52   12   50 1
    53   12   51 1
    54   13   52 1
    55   13   53 1
    56   14   54 1
    57   14   55 1
    58   15   56 1
    59   16   57 1
    60   17   58 1
    61   18   59 1
    62   19   60 1
    63   19   61 1
    64   19   62 1
    65   20   63 1
    66   20   64 1
    67   20   65 1
    68   21   66 1
    69   21   67 1
    70   22   68 1
    71   22   69 1
    72   23   70 1
    73   23   71 1
    74   24   72 1
    75   24   73 1
    76   25   74 1
    77   25   75 1
    78   26   76 1
    79   26   77 1
    80   27   78 1
    81   28   79 1
    82   29   80 1
    83   30   81 1
    84   32   82 1
    85   32   83 1
    86   33   84 1
    87   33   85 1
    88   34   86 1
    89   35   87 1
    90   36   88 1
    91   40   89 1
    92   41   90 1
    93   42   91 1
    94   43   92 1
@<TRIPOS>MOLECULE
1a2c_ligand_30
   92    94     0     0     0
SMALL
USER_CHARGES

mmff94s_NoEstat = 106.96
@<TRIPOS>ATOM
      1 C1         -7.9932   -1.0210   -1.1999 C.ar      1 <0>        -0.0708
      2 C2         -5.8259   -0.0100   -1.5432 C.ar      1 <0>        -0.0872
      3 C3         -8.5676    0.2459   -1.0959 C.ar      1 <0>        -0.2241
      4 C4         -6.4004    1.2568   -1.4392 C.ar      1 <0>        -0.1600
      5 C5         -6.6301   -1.1319   -1.4222 C.ar      1 <0>        -0.1356
      6 C6         -7.7712    1.3848   -1.2155 C.ar      1 <0>         0.1290
      7 C7         -0.0512   -1.0561    0.2993 C.2       1 <0>         0.6664
      8 C8         -1.8469   -3.0457    2.1630 C.2       1 <0>         0.6651
      9 C9         -4.1811   -2.4610    0.1870 C.2       1 <0>         0.6454
     10 C10        -2.1772   -1.1627   -4.7494 C.cat     1 <0>         0.6349
     11 C11         2.5186   -3.1911    0.6823 C.3       1 <0>        -0.0642
     12 C12         2.4580   -4.6414    0.2376 C.3       1 <0>        -0.0747
     13 C13         1.4874   -1.4827    2.2418 C.3       1 <0>        -0.0873
     14 C14         0.4946   -5.0934    1.7133 C.3       1 <0>        -0.1371
     15 C15         0.0412   -1.4176    1.7503 C.3       1 <0>         0.0360
     16 C16         1.8865   -2.9529    2.0632 C.3       1 <0>        -0.0720
     17 C17         0.5665   -3.7001    2.3454 C.3       1 <0>         0.1201
     18 C18         1.0248   -5.1525    0.2868 C.3       1 <0>         0.1453
     19 C19        -5.3726   -0.5418    3.1302 C.3       1 <0>        -0.0968
     20 C20        -3.4397    1.0389    2.9738 C.3       1 <0>        -0.0986
     21 C21        -6.0083   -2.5034   -1.5355 C.3       1 <0>        -0.0191
     22 C22        -0.9951    2.0137   -3.0747 C.3       1 <0>        -0.1009
     23 C23        -0.8794    1.4488   -1.6540 C.3       1 <0>        -0.0942
     24 C24        -2.9973   -1.3585    3.5851 C.3       1 <0>        -0.0988
     25 C25        -0.9093    0.9015   -4.1176 C.3       1 <0>         0.1966
     26 C26         1.6856    1.6412   -1.5001 C.3       1 <0>         0.1128
     27 C27        -2.7865   -1.8644    2.1628 C.3       1 <0>         0.0786
     28 C28        -5.5432   -3.0384   -0.1771 C.3       1 <0>         0.0744
     29 C29        -3.9969   -0.1898    3.6979 C.3       1 <0>        -0.0678
     30 C30         0.4555    0.7445   -1.3388 C.3       1 <0>         0.1065
     31 N1         -0.4979   -2.7598    1.9615 N.am      1 <0>        -0.4315
     32 N2         -3.2267   -2.0473   -4.5232 N.pl3     1 <0>        -0.8671
     33 N3         -1.3100   -1.3971   -5.8110 N.pl3     1 <0>        -0.8581
     34 N4          0.4455    0.1980   -0.0008 N.am      1 <0>        -0.5687
     35 N5         -3.9799   -2.3853    1.5634 N.am      1 <0>        -0.5746
     36 N6         -1.9845   -0.0421   -3.9232 N.pl3     1 <0>        -0.7533
     37 O1         -0.5362   -1.8555   -0.4928 O.2       1 <0>        -0.5843
     38 O2         -2.2998   -4.1783    2.3409 O.2       1 <0>        -0.6812
     39 O3         -3.3708   -2.0954   -0.6616 O.2       1 <0>        -0.5788
     40 O4         -8.3321    2.6210   -1.1157 O.3       1 <0>        -0.4938
     41 O5          0.9879   -6.5072   -0.1510 O.3       1 <0>        -0.6030
     42 O6          1.5971    2.7470   -0.6113 O.3       1 <0>        -0.5860
     43 O7         -5.4208   -4.4514   -0.2549 O.3       1 <0>        -0.6021
     44 H1         -8.6216   -1.9023   -1.1052 H         1 <0>         0.1412
     45 H2         -4.7569   -0.1001   -1.7178 H         1 <0>         0.1451
     46 H3         -9.6360    0.3389   -0.9219 H         1 <0>         0.1336
     47 H4         -5.7747    2.1405   -1.5342 H         1 <0>         0.1567
     48 H5          3.5627   -2.8549    0.7003 H         1 <0>         0.0649
     49 H6          2.0259   -2.5829   -0.0837 H         1 <0>         0.0476
     50 H7          2.8567   -4.7427   -0.7790 H         1 <0>         0.0641
     51 H8          3.1032   -5.2618    0.8729 H         1 <0>         0.0484
     52 H9          2.1569   -0.7868    1.7257 H         1 <0>         0.0596
     53 H10         1.5124   -1.2395    3.3116 H         1 <0>         0.0757
     54 H11         1.0921   -5.7802    2.3299 H         1 <0>         0.0782
     55 H12        -0.5175   -5.5090    1.7393 H         1 <0>         0.0812
     56 H13        -0.5378   -0.6778    2.3126 H         1 <0>         0.0731
     57 H14         2.6304   -3.2407    2.8169 H         1 <0>         0.0511
     58 H15         0.4523   -3.8218    3.4319 H         1 <0>         0.0753
     59 H16         0.3841   -4.5700   -0.3844 H         1 <0>         0.0427
     60 H17        -6.0375    0.3284    3.1563 H         1 <0>         0.0450
     61 H18        -5.8542   -1.3328    3.7128 H         1 <0>         0.0406
     62 H19        -5.2988   -0.8789    2.0908 H         1 <0>         0.0274
     63 H20        -3.3028    0.8425    1.9049 H         1 <0>         0.0476
     64 H21        -4.1178    1.8926    3.0773 H         1 <0>         0.0170
     65 H22        -2.4708    1.3315    3.3922 H         1 <0>         0.0477
     66 H23        -5.1607   -2.4579   -2.2324 H         1 <0>         0.0814
     67 H24        -6.7403   -3.1770   -1.9985 H         1 <0>         0.0685
     68 H25        -1.9473    2.5434   -3.1941 H         1 <0>         0.1016
     69 H26        -0.1993    2.7456   -3.2583 H         1 <0>         0.0660
     70 H27        -1.7000    0.7382   -1.4859 H         1 <0>         0.0512
     71 H28        -1.0340    2.2618   -0.9330 H         1 <0>         0.0454
     72 H29        -2.0302   -1.0518    4.0061 H         1 <0>         0.0575
     73 H30        -3.3514   -2.1846    4.2177 H         1 <0>         0.0743
     74 H31         0.0481    0.3762   -4.0351 H         1 <0>         0.0662
     75 H32        -0.9770    1.3169   -5.1283 H         1 <0>         0.0622
     76 H33         1.7842    2.0214   -2.5223 H         1 <0>         0.0321
     77 H34         2.5988    1.0866   -1.2555 H         1 <0>         0.0204
     78 H35        -2.3647   -1.1082    1.5019 H         1 <0>         0.0749
     79 H36        -6.2595   -2.7988    0.6177 H         1 <0>         0.0719
     80 H37        -4.1195    0.0762    4.7551 H         1 <0>         0.0609
     81 H38         0.5463   -0.0881   -2.0483 H         1 <0>         0.1063
     82 H39        -3.8838   -1.9173   -3.7587 H         1 <0>         0.4792
     83 H40        -3.3646   -2.8583   -5.1217 H         1 <0>         0.4819
     84 H41        -0.5324   -0.7707   -6.0048 H         1 <0>         0.4802
     85 H42        -1.4312   -2.2010   -6.4224 H         1 <0>         0.4826
     86 H43         0.8216    0.7626    0.7549 H         1 <0>         0.3101
     87 H44        -4.7231   -2.7191    2.1790 H         1 <0>         0.3087
     88 H45        -2.6541    0.0831   -3.1543 H         1 <0>         0.4846
     89 H46        -9.0832    2.6009   -0.5014 H         1 <0>         0.4194
     90 H47         1.8515   -6.8926    0.0654 H         1 <0>         0.4036
     91 H48         1.0115    3.3975   -1.0313 H         1 <0>         0.4114
     92 H49        -5.9013   -4.7317   -1.0509 H         1 <0>         0.3944
@<TRIPOS>BOND
     1    1    3 ar
     2    1    5 ar
     3    2    4 ar
     4    2    5 ar
     5    3    6 ar
     6    4    6 ar
     7    5   21 1
     8    6   40 1
     9    7   15 1
    10    7   34 am
    11    7   37 2
    12    8   27 1
    13    8   31 am
    14    8   38 2
    15    9   28 1
    16    9   35 am
    17    9   39 2
    18   10   32 1
    19   10   33 1
    20   10   36 1
    21   11   12 1
    22   11   16 1
    23   12   18 1
    24   13   15 1
    25   13   16 1
    26   14   17 1
    27   14   18 1
    28   15   31 1
    29   16   17 1
    30   17   31 1
    31   18   41 1
    32   19   29 1
    33   20   29 1
    34   21   28 1
    35   22   23 1
    36   22   25 1
    37   23   30 1
    38   24   27 1
    39   24   29 1
    40   25   36 1
    41   26   30 1
    42   26   42 1
    43   27   35 1
    44   28   43 1
    45   30   34 1
    46    1   44 1
    47    2   45 1
    48    3   46 1
    49    4   47 1
    50   11   48 1
    51   11   49 1
    52   12   50 1
    53   12   51 1
    54   13   52 1
    55   13   53 1
    56   14   54 1
    57   14   55 1
    58   15   56 1
    59   16   57 1
    60   17   58 1
    61   18   59 1
    62   19   60 1
    63   19   61 1
    64   19   62 1
    65   20   63 1
    66   20   64 1
    67   20   65 1
    68   21   66 1
    69   21   67 1
    70   22   68 1
    71   22   69 1
    72   23   70 1
    73   23   71 1
    74   24   72 1
    75   24   73 1
    76   25   74 1
    77   25   75 1
    78   26   76 1
    79   26   77 1
    80   27   78 1
    81   28   79 1
    82   29   80 1
    83   30   81 1
    84   32   82 1
    85   32   83 1
    86   33   84 1
    87   33   85 1
    88   34   86 1
    89   35   87 1
    90   36   88 1
    91   40   89 1
    92   41   90 1
    93   42   91 1
    94   43   92 1
@<TRIPOS>MOLECULE
1a2c_ligand_31
   92    94     0     0     0
SMALL
USER_CHARGES

mmff94s_NoEstat = 106.97
@<TRIPOS>ATOM
      1 C1         -7.9932   -1.0210   -1.1999 C.ar      1 <0>        -0.0708
      2 C2         -5.8259   -0.0100   -1.5432 C.ar      1 <0>        -0.0872
      3 C3         -8.5676    0.2459   -1.0959 C.ar      1 <0>        -0.2241
      4 C4         -6.4004    1.2568   -1.4392 C.ar      1 <0>        -0.1600
      5 C5         -6.6301   -1.1319   -1.4222 C.ar      1 <0>        -0.1356
      6 C6         -7.7712    1.3848   -1.2155 C.ar      1 <0>         0.1290
      7 C7         -0.0512   -1.0561    0.2993 C.2       1 <0>         0.6664
      8 C8         -1.8469   -3.0457    2.1630 C.2       1 <0>         0.6651
      9 C9         -4.1811   -2.4610    0.1870 C.2       1 <0>         0.6454
     10 C10        -0.1924    6.4494   -4.0524 C.cat     1 <0>         0.6349
     11 C11         2.5186   -3.1911    0.6823 C.3       1 <0>        -0.0642
     12 C12         2.4580   -4.6414    0.2376 C.3       1 <0>        -0.0747
     13 C13         1.4874   -1.4827    2.2418 C.3       1 <0>        -0.0873
     14 C14         0.4946   -5.0934    1.7133 C.3       1 <0>        -0.1371
     15 C15         0.0412   -1.4176    1.7503 C.3       1 <0>         0.0360
     16 C16         1.8865   -2.9529    2.0632 C.3       1 <0>        -0.0720
     17 C17         0.5665   -3.7001    2.3454 C.3       1 <0>         0.1201
     18 C18         1.0248   -5.1525    0.2868 C.3       1 <0>         0.1453
     19 C19        -5.3726   -0.5418    3.1302 C.3       1 <0>        -0.0968
     20 C20        -3.4397    1.0389    2.9738 C.3       1 <0>        -0.0986
     21 C21        -6.0083   -2.5034   -1.5355 C.3       1 <0>        -0.0191
     22 C22         0.1864    2.9452   -2.6852 C.3       1 <0>        -0.1009
     23 C23         0.2513    2.2726   -1.3090 C.3       1 <0>        -0.0942
     24 C24        -2.9973   -1.3585    3.5851 C.3       1 <0>        -0.0988
     25 C25         0.0377    4.4591   -2.5512 C.3       1 <0>         0.1966
     26 C26         1.7383    0.3016   -2.0469 C.3       1 <0>         0.1128
     27 C27        -2.7865   -1.8644    2.1628 C.3       1 <0>         0.0786
     28 C28        -5.5432   -3.0384   -0.1771 C.3       1 <0>         0.0744
     29 C29        -3.9969   -0.1898    3.6979 C.3       1 <0>        -0.0678
     30 C30         0.4555    0.7445   -1.3388 C.3       1 <0>         0.1065
     31 N1         -0.4979   -2.7598    1.9615 N.am      1 <0>        -0.4315
     32 N2         -0.2513    6.9915   -5.3321 N.pl3     1 <0>        -0.8671
     33 N3         -0.2955    7.2945   -2.9528 N.pl3     1 <0>        -0.8581
     34 N4          0.4455    0.1980   -0.0008 N.am      1 <0>        -0.5687
     35 N5         -3.9799   -2.3853    1.5634 N.am      1 <0>        -0.5746
     36 N6         -0.0310    5.0665   -3.8590 N.pl3     1 <0>        -0.7533
     37 O1         -0.5362   -1.8555   -0.4928 O.2       1 <0>        -0.5843
     38 O2         -2.2998   -4.1783    2.3409 O.2       1 <0>        -0.6812
     39 O3         -3.3708   -2.0954   -0.6616 O.2       1 <0>        -0.5788
     40 O4         -8.3321    2.6210   -1.1157 O.3       1 <0>        -0.4938
     41 O5          0.9879   -6.5072   -0.1510 O.3       1 <0>        -0.6030
     42 O6          2.8703    0.8436   -1.3793 O.3       1 <0>        -0.5860
     43 O7         -5.4208   -4.4514   -0.2549 O.3       1 <0>        -0.6021
     44 H1         -8.6216   -1.9023   -1.1052 H         1 <0>         0.1412
     45 H2         -4.7569   -0.1001   -1.7178 H         1 <0>         0.1451
     46 H3         -9.6360    0.3389   -0.9219 H         1 <0>         0.1336
     47 H4         -5.7747    2.1405   -1.5342 H         1 <0>         0.1567
     48 H5          3.5627   -2.8549    0.7003 H         1 <0>         0.0649
     49 H6          2.0259   -2.5829   -0.0837 H         1 <0>         0.0476
     50 H7          2.8567   -4.7427   -0.7790 H         1 <0>         0.0641
     51 H8          3.1032   -5.2618    0.8729 H         1 <0>         0.0484
     52 H9          2.1569   -0.7868    1.7257 H         1 <0>         0.0596
     53 H10         1.5124   -1.2395    3.3116 H         1 <0>         0.0757
     54 H11         1.0921   -5.7802    2.3299 H         1 <0>         0.0782
     55 H12        -0.5175   -5.5090    1.7393 H         1 <0>         0.0812
     56 H13        -0.5378   -0.6778    2.3126 H         1 <0>         0.0731
     57 H14         2.6304   -3.2407    2.8169 H         1 <0>         0.0511
     58 H15         0.4523   -3.8218    3.4319 H         1 <0>         0.0753
     59 H16         0.3841   -4.5700   -0.3844 H         1 <0>         0.0427
     60 H17        -6.0375    0.3284    3.1563 H         1 <0>         0.0450
     61 H18        -5.8542   -1.3328    3.7128 H         1 <0>         0.0406
     62 H19        -5.2988   -0.8789    2.0908 H         1 <0>         0.0274
     63 H20        -3.3028    0.8425    1.9049 H         1 <0>         0.0476
     64 H21        -4.1178    1.8926    3.0773 H         1 <0>         0.0170
     65 H22        -2.4708    1.3315    3.3922 H         1 <0>         0.0477
     66 H23        -5.1607   -2.4579   -2.2324 H         1 <0>         0.0814
     67 H24        -6.7403   -3.1770   -1.9985 H         1 <0>         0.0685
     68 H25         1.0953    2.7243   -3.2569 H         1 <0>         0.1016
     69 H26        -0.6566    2.5474   -3.2629 H         1 <0>         0.0660
     70 H27        -0.6751    2.4928   -0.7614 H         1 <0>         0.0512
     71 H28         1.0606    2.7304   -0.7258 H         1 <0>         0.0454
     72 H29        -2.0302   -1.0518    4.0061 H         1 <0>         0.0575
     73 H30        -3.3514   -2.1846    4.2177 H         1 <0>         0.0743
     74 H31         0.8899    4.8778   -2.0056 H         1 <0>         0.0662
     75 H32        -0.8713    4.7077   -1.9937 H         1 <0>         0.0622
     76 H33         1.7614    0.6251   -3.0928 H         1 <0>         0.0321
     77 H34         1.8289   -0.7905   -2.0281 H         1 <0>         0.0204
     78 H35        -2.3647   -1.1082    1.5019 H         1 <0>         0.0749
     79 H36        -6.2595   -2.7988    0.6177 H         1 <0>         0.0719
     80 H37        -4.1195    0.0762    4.7551 H         1 <0>         0.0609
     81 H38        -0.3978    0.3245   -1.8868 H         1 <0>         0.1063
     82 H39        -0.1784    6.4130   -6.1648 H         1 <0>         0.4792
     83 H40        -0.3675    7.9927   -5.4705 H         1 <0>         0.4819
     84 H41        -0.2564    6.9316   -2.0034 H         1 <0>         0.4802
     85 H42        -0.4140    8.2980   -3.0692 H         1 <0>         0.4826
     86 H43         0.8216    0.7626    0.7549 H         1 <0>         0.3101
     87 H44        -4.7231   -2.7191    2.1790 H         1 <0>         0.3087
     88 H45         0.0398    4.4889   -4.7055 H         1 <0>         0.4846
     89 H46        -9.0832    2.6009   -0.5014 H         1 <0>         0.4194
     90 H47         1.8515   -6.8926    0.0654 H         1 <0>         0.4036
     91 H48         2.9636    1.7601   -1.6856 H         1 <0>         0.4114
     92 H49        -5.9013   -4.7317   -1.0509 H         1 <0>         0.3944
@<TRIPOS>BOND
     1    1    3 ar
     2    1    5 ar
     3    2    4 ar
     4    2    5 ar
     5    3    6 ar
     6    4    6 ar
     7    5   21 1
     8    6   40 1
     9    7   15 1
    10    7   34 am
    11    7   37 2
    12    8   27 1
    13    8   31 am
    14    8   38 2
    15    9   28 1
    16    9   35 am
    17    9   39 2
    18   10   32 1
    19   10   33 1
    20   10   36 1
    21   11   12 1
    22   11   16 1
    23   12   18 1
    24   13   15 1
    25   13   16 1
    26   14   17 1
    27   14   18 1
    28   15   31 1
    29   16   17 1
    30   17   31 1
    31   18   41 1
    32   19   29 1
    33   20   29 1
    34   21   28 1
    35   22   23 1
    36   22   25 1
    37   23   30 1
    38   24   27 1
    39   24   29 1
    40   25   36 1
    41   26   30 1
    42   26   42 1
    43   27   35 1
    44   28   43 1
    45   30   34 1
    46    1   44 1
    47    2   45 1
    48    3   46 1
    49    4   47 1
    50   11   48 1
    51   11   49 1
    52   12   50 1
    53   12   51 1
    54   13   52 1
    55   13   53 1
    56   14   54 1
    57   14   55 1
    58   15   56 1
    59   16   57 1
    60   17   58 1
    61   18   59 1
    62   19   60 1
    63   19   61 1
    64   19   62 1
    65   20   63 1
    66   20   64 1
    67   20   65 1
    68   21   66 1
    69   21   67 1
    70   22   68 1
    71   22   69 1
    72   23   70 1
    73   23   71 1
    74   24   72 1
    75   24   73 1
    76   25   74 1
    77   25   75 1
    78   26   76 1
    79   26   77 1
    80   27   78 1
    81   28   79 1
    82   29   80 1
    83   30   81 1
    84   32   82 1
    85   32   83 1
    86   33   84 1
    87   33   85 1
    88   34   86 1
    89   35   87 1
    90   36   88 1
    91   40   89 1
    92   41   90 1
    93   42   91 1
    94   43   92 1
@<TRIPOS>MOLECULE
1a2c_ligand_32
   92    94     0     0     0
SMALL
USER_CHARGES

mmff94s_NoEstat = 106.99
@<TRIPOS>ATOM
      1 C1         -8.1123   -5.1215    0.2464 C.ar      1 <0>        -0.0708
      2 C2         -6.5169   -6.0095   -1.3358 C.ar      1 <0>        -0.0872
      3 C3         -9.1310   -5.8431   -0.3759 C.ar      1 <0>        -0.2241
      4 C4         -7.5356   -6.7311   -1.9580 C.ar      1 <0>        -0.1600
      5 C5         -6.8190   -5.2144   -0.2419 C.ar      1 <0>        -0.1356
      6 C6         -8.8427   -6.6480   -1.4781 C.ar      1 <0>         0.1290
      7 C7         -0.0512   -1.0561    0.2993 C.2       1 <0>         0.6664
      8 C8         -1.8469   -3.0457    2.1630 C.2       1 <0>         0.6651
      9 C9         -4.1811   -2.4610    0.1870 C.2       1 <0>         0.6454
     10 C10        -3.3611    4.6327   -3.0349 C.cat     1 <0>         0.6349
     11 C11         2.5186   -3.1911    0.6823 C.3       1 <0>        -0.0642
     12 C12         2.4580   -4.6414    0.2376 C.3       1 <0>        -0.0747
     13 C13         1.4874   -1.4827    2.2418 C.3       1 <0>        -0.0873
     14 C14         0.4946   -5.0934    1.7133 C.3       1 <0>        -0.1371
     15 C15         0.0412   -1.4176    1.7503 C.3       1 <0>         0.0360
     16 C16         1.8865   -2.9529    2.0632 C.3       1 <0>        -0.0720
     17 C17         0.5665   -3.7001    2.3454 C.3       1 <0>         0.1201
     18 C18         1.0248   -5.1525    0.2868 C.3       1 <0>         0.1453
     19 C19        -5.3726   -0.5418    3.1302 C.3       1 <0>        -0.0968
     20 C20        -3.4397    1.0389    2.9738 C.3       1 <0>        -0.0986
     21 C21        -5.7160   -4.4337    0.4322 C.3       1 <0>        -0.0191
     22 C22        -1.8968    1.7896   -1.0188 C.3       1 <0>        -0.1009
     23 C23        -0.4337    2.0012   -1.4250 C.3       1 <0>        -0.0942
     24 C24        -2.9973   -1.3585    3.5851 C.3       1 <0>        -0.0988
     25 C25        -2.7062    3.0733   -1.1890 C.3       1 <0>         0.1966
     26 C26         1.9058    0.9774   -1.7696 C.3       1 <0>         0.1128
     27 C27        -2.7865   -1.8644    2.1628 C.3       1 <0>         0.0786
     28 C28        -5.5432   -3.0384   -0.1771 C.3       1 <0>         0.0744
     29 C29        -3.9969   -0.1898    3.6979 C.3       1 <0>        -0.0678
     30 C30         0.4555    0.7445   -1.3388 C.3       1 <0>         0.1065
     31 N1         -0.4979   -2.7598    1.9615 N.am      1 <0>        -0.4315
     32 N2         -3.3082    5.0008   -4.3753 N.pl3     1 <0>        -0.8671
     33 N3         -4.0986    5.4088   -2.1474 N.pl3     1 <0>        -0.8581
     34 N4          0.4455    0.1980   -0.0008 N.am      1 <0>        -0.5687
     35 N5         -3.9799   -2.3853    1.5634 N.am      1 <0>        -0.5746
     36 N6         -2.6823    3.4930   -2.5701 N.pl3     1 <0>        -0.7533
     37 O1         -0.5362   -1.8555   -0.4928 O.2       1 <0>        -0.5843
     38 O2         -2.2998   -4.1783    2.3409 O.2       1 <0>        -0.6812
     39 O3         -3.3708   -2.0954   -0.6616 O.2       1 <0>        -0.5788
     40 O4         -9.8364   -7.3534   -2.0842 O.3       1 <0>        -0.4938
     41 O5          0.9879   -6.5072   -0.1510 O.3       1 <0>        -0.6030
     42 O6          2.5087    1.9525   -0.9290 O.3       1 <0>        -0.5860
     43 O7         -6.5451   -2.1786    0.3468 O.3       1 <0>        -0.6021
     44 H1         -8.3466   -4.4971    1.1042 H         1 <0>         0.1412
     45 H2         -5.5013   -6.0806   -1.7164 H         1 <0>         0.1451
     46 H3        -10.1470   -5.7743    0.0027 H         1 <0>         0.1336
     47 H4         -7.3045   -7.3572   -2.8158 H         1 <0>         0.1567
     48 H5          3.5627   -2.8549    0.7003 H         1 <0>         0.0649
     49 H6          2.0259   -2.5829   -0.0837 H         1 <0>         0.0476
     50 H7          2.8567   -4.7427   -0.7790 H         1 <0>         0.0641
     51 H8          3.1032   -5.2618    0.8729 H         1 <0>         0.0484
     52 H9          2.1569   -0.7868    1.7257 H         1 <0>         0.0596
     53 H10         1.5124   -1.2395    3.3116 H         1 <0>         0.0757
     54 H11         1.0921   -5.7802    2.3299 H         1 <0>         0.0782
     55 H12        -0.5175   -5.5090    1.7393 H         1 <0>         0.0812
     56 H13        -0.5378   -0.6778    2.3126 H         1 <0>         0.0731
     57 H14         2.6304   -3.2407    2.8169 H         1 <0>         0.0511
     58 H15         0.4523   -3.8218    3.4319 H         1 <0>         0.0753
     59 H16         0.3841   -4.5700   -0.3844 H         1 <0>         0.0427
     60 H17        -6.0375    0.3284    3.1563 H         1 <0>         0.0450
     61 H18        -5.8542   -1.3328    3.7128 H         1 <0>         0.0406
     62 H19        -5.2988   -0.8789    2.0908 H         1 <0>         0.0274
     63 H20        -3.3028    0.8425    1.9049 H         1 <0>         0.0476
     64 H21        -4.1178    1.8926    3.0773 H         1 <0>         0.0170
     65 H22        -2.4708    1.3315    3.3922 H         1 <0>         0.0477
     66 H23        -4.7767   -4.9973    0.3545 H         1 <0>         0.0814
     67 H24        -5.9411   -4.3740    1.5044 H         1 <0>         0.0685
     68 H25        -2.3478    0.9988   -1.6296 H         1 <0>         0.1016
     69 H26        -1.9571    1.4582    0.0248 H         1 <0>         0.0660
     70 H27         0.0021    2.7844   -0.7898 H         1 <0>         0.0512
     71 H28        -0.4008    2.3932   -2.4497 H         1 <0>         0.0454
     72 H29        -2.0302   -1.0518    4.0061 H         1 <0>         0.0575
     73 H30        -3.3514   -2.1846    4.2177 H         1 <0>         0.0743
     74 H31        -2.2897    3.8707   -0.5646 H         1 <0>         0.0662
     75 H32        -3.7451    2.9157   -0.8815 H         1 <0>         0.0622
     76 H33         1.9749    1.3199   -2.8074 H         1 <0>         0.0321
     77 H34         2.4858    0.0519   -1.6791 H         1 <0>         0.0204
     78 H35        -2.3647   -1.1082    1.5019 H         1 <0>         0.0749
     79 H36        -5.6447   -3.0594   -1.2687 H         1 <0>         0.0719
     80 H37        -4.1195    0.0762    4.7551 H         1 <0>         0.0609
     81 H38         0.0149    0.0012   -2.0158 H         1 <0>         0.1063
     82 H39        -2.7804    4.4652   -5.0593 H         1 <0>         0.4792
     83 H40        -3.7995    5.8263   -4.7102 H         1 <0>         0.4819
     84 H41        -4.1585    5.1685   -1.1609 H         1 <0>         0.4802
     85 H42        -4.5986    6.2369   -2.4619 H         1 <0>         0.4826
     86 H43         0.8216    0.7626    0.7549 H         1 <0>         0.3101
     87 H44        -4.7231   -2.7191    2.1790 H         1 <0>         0.3087
     88 H45        -2.1531    2.9563   -3.2681 H         1 <0>         0.4846
     89 H46       -10.6756   -6.8692   -2.0272 H         1 <0>         0.4194
     90 H47         1.8515   -6.8926    0.0654 H         1 <0>         0.4036
     91 H48         2.2238    2.8203   -1.2580 H         1 <0>         0.4114
     92 H49        -7.2229   -2.7477    0.7466 H         1 <0>         0.3944
@<TRIPOS>BOND
     1    1    3 ar
     2    1    5 ar
     3    2    4 ar
     4    2    5 ar
     5    3    6 ar
     6    4    6 ar
     7    5   21 1
     8    6   40 1
     9    7   15 1
    10    7   34 am
    11    7   37 2
    12    8   27 1
    13    8   31 am
    14    8   38 2
    15    9   28 1
    16    9   35 am
    17    9   39 2
    18   10   32 1
    19   10   33 1
    20   10   36 1
    21   11   12 1
    22   11   16 1
    23   12   18 1
    24   13   15 1
    25   13   16 1
    26   14   17 1
    27   14   18 1
    28   15   31 1
    29   16   17 1
    30   17   31 1
    31   18   41 1
    32   19   29 1
    33   20   29 1
    34   21   28 1
    35   22   23 1
    36   22   25 1
    37   23   30 1
    38   24   27 1
    39   24   29 1
    40   25   36 1
    41   26   30 1
    42   26   42 1
    43   27   35 1
    44   28   43 1
    45   30   34 1
    46    1   44 1
    47    2   45 1
    48    3   46 1
    49    4   47 1
    50   11   48 1
    51   11   49 1
    52   12   50 1
    53   12   51 1
    54   13   52 1
    55   13   53 1
    56   14   54 1
    57   14   55 1
    58   15   56 1
    59   16   57 1
    60   17   58 1
    61   18   59 1
    62   19   60 1
    63   19   61 1
    64   19   62 1
    65   20   63 1
    66   20   64 1
    67   20   65 1
    68   21   66 1
    69   21   67 1
    70   22   68 1
    71   22   69 1
    72   23   70 1
    73   23   71 1
    74   24   72 1
    75   24   73 1
    76   25   74 1
    77   25   75 1
    78   26   76 1
    79   26   77 1
    80   27   78 1
    81   28   79 1
    82   29   80 1
    83   30   81 1
    84   32   82 1
    85   32   83 1
    86   33   84 1
    87   33   85 1
    88   34   86 1
    89   35   87 1
    90   36   88 1
    91   40   89 1
    92   41   90 1
    93   42   91 1
    94   43   92 1
@<TRIPOS>MOLECULE
1a2c_ligand_33
   92    94     0     0     0
SMALL
USER_CHARGES

mmff94s_NoEstat = 107.04
@<TRIPOS>ATOM
      1 C1         -8.1123   -5.1215    0.2464 C.ar      1 <0>        -0.0708
      2 C2         -6.5169   -6.0095   -1.3358 C.ar      1 <0>        -0.0872
      3 C3         -9.1310   -5.8431   -0.3759 C.ar      1 <0>        -0.2241
      4 C4         -7.5356   -6.7311   -1.9580 C.ar      1 <0>        -0.1600
      5 C5         -6.8190   -5.2144   -0.2419 C.ar      1 <0>        -0.1356
      6 C6         -8.8427   -6.6480   -1.4781 C.ar      1 <0>         0.1290
      7 C7         -0.0512   -1.0561    0.2993 C.2       1 <0>         0.6664
      8 C8         -1.8469   -3.0457    2.1630 C.2       1 <0>         0.6651
      9 C9         -4.1811   -2.4610    0.1870 C.2       1 <0>         0.6454
     10 C10         3.5897   -3.3158   -3.8636 C.cat     1 <0>         0.6349
     11 C11         2.5186   -3.1911    0.6823 C.3       1 <0>        -0.0642
     12 C12         2.4580   -4.6414    0.2376 C.3       1 <0>        -0.0747
     13 C13         1.4874   -1.4827    2.2418 C.3       1 <0>        -0.0873
     14 C14         0.4946   -5.0934    1.7133 C.3       1 <0>        -0.1371
     15 C15         0.0412   -1.4176    1.7503 C.3       1 <0>         0.0360
     16 C16         1.8865   -2.9529    2.0632 C.3       1 <0>        -0.0720
     17 C17         0.5665   -3.7001    2.3454 C.3       1 <0>         0.1201
     18 C18         1.0248   -5.1525    0.2868 C.3       1 <0>         0.1453
     19 C19        -5.3726   -0.5418    3.1302 C.3       1 <0>        -0.0968
     20 C20        -3.4397    1.0389    2.9738 C.3       1 <0>        -0.0986
     21 C21        -5.7160   -4.4337    0.4322 C.3       1 <0>        -0.0191
     22 C22         2.8091   -0.2380   -1.8118 C.3       1 <0>        -0.1009
     23 C23         1.3524   -0.0970   -2.2688 C.3       1 <0>        -0.0942
     24 C24        -2.9973   -1.3585    3.5851 C.3       1 <0>        -0.0988
     25 C25         3.6273   -1.0396   -2.8217 C.3       1 <0>         0.1966
     26 C26        -0.9878    0.8875   -1.8280 C.3       1 <0>         0.1128
     27 C27        -2.7865   -1.8644    2.1628 C.3       1 <0>         0.0786
     28 C28        -5.5432   -3.0384   -0.1771 C.3       1 <0>         0.0744
     29 C29        -3.9969   -0.1898    3.6979 C.3       1 <0>        -0.0678
     30 C30         0.4555    0.7445   -1.3388 C.3       1 <0>         0.1065
     31 N1         -0.4979   -2.7598    1.9615 N.am      1 <0>        -0.4315
     32 N2          3.0132   -4.5761   -3.9816 N.pl3     1 <0>        -0.8671
     33 N3          4.7045   -3.0053   -4.6349 N.pl3     1 <0>        -0.8581
     34 N4          0.4455    0.1980   -0.0008 N.am      1 <0>        -0.5687
     35 N5         -3.9799   -2.3853    1.5634 N.am      1 <0>        -0.5746
     36 N6          3.0622   -2.3586   -2.9797 N.pl3     1 <0>        -0.7533
     37 O1         -0.5362   -1.8555   -0.4928 O.2       1 <0>        -0.5843
     38 O2         -2.2998   -4.1783    2.3409 O.2       1 <0>        -0.6812
     39 O3         -3.3708   -2.0954   -0.6616 O.2       1 <0>        -0.5788
     40 O4         -9.8364   -7.3534   -2.0842 O.3       1 <0>        -0.4938
     41 O5          0.9879   -6.5072   -0.1510 O.3       1 <0>        -0.6030
     42 O6         -1.7287    1.6906   -0.9186 O.3       1 <0>        -0.5860
     43 O7         -6.5451   -2.1786    0.3468 O.3       1 <0>        -0.6021
     44 H1         -8.3466   -4.4971    1.1042 H         1 <0>         0.1412
     45 H2         -5.5013   -6.0806   -1.7164 H         1 <0>         0.1451
     46 H3        -10.1470   -5.7743    0.0027 H         1 <0>         0.1336
     47 H4         -7.3045   -7.3572   -2.8158 H         1 <0>         0.1567
     48 H5          3.5627   -2.8549    0.7003 H         1 <0>         0.0649
     49 H6          2.0259   -2.5829   -0.0837 H         1 <0>         0.0476
     50 H7          2.8567   -4.7427   -0.7790 H         1 <0>         0.0641
     51 H8          3.1032   -5.2618    0.8729 H         1 <0>         0.0484
     52 H9          2.1569   -0.7868    1.7257 H         1 <0>         0.0596
     53 H10         1.5124   -1.2395    3.3116 H         1 <0>         0.0757
     54 H11         1.0921   -5.7802    2.3299 H         1 <0>         0.0782
     55 H12        -0.5175   -5.5090    1.7393 H         1 <0>         0.0812
     56 H13        -0.5378   -0.6778    2.3126 H         1 <0>         0.0731
     57 H14         2.6304   -3.2407    2.8169 H         1 <0>         0.0511
     58 H15         0.4523   -3.8218    3.4319 H         1 <0>         0.0753
     59 H16         0.3841   -4.5700   -0.3844 H         1 <0>         0.0427
     60 H17        -6.0375    0.3284    3.1563 H         1 <0>         0.0450
     61 H18        -5.8542   -1.3328    3.7128 H         1 <0>         0.0406
     62 H19        -5.2988   -0.8789    2.0908 H         1 <0>         0.0274
     63 H20        -3.3028    0.8425    1.9049 H         1 <0>         0.0476
     64 H21        -4.1178    1.8926    3.0773 H         1 <0>         0.0170
     65 H22        -2.4708    1.3315    3.3922 H         1 <0>         0.0477
     66 H23        -4.7767   -4.9973    0.3545 H         1 <0>         0.0814
     67 H24        -5.9411   -4.3740    1.5044 H         1 <0>         0.0685
     68 H25         3.2637    0.7519   -1.6883 H         1 <0>         0.1016
     69 H26         2.8542   -0.7324   -0.8340 H         1 <0>         0.0660
     70 H27         0.9126   -1.0986   -2.3693 H         1 <0>         0.0512
     71 H28         1.3348    0.3408   -3.2751 H         1 <0>         0.0454
     72 H29        -2.0302   -1.0518    4.0061 H         1 <0>         0.0575
     73 H30        -3.3514   -2.1846    4.2177 H         1 <0>         0.0743
     74 H31         4.6645   -1.1321   -2.4825 H         1 <0>         0.0662
     75 H32         3.6369   -0.5363   -3.7940 H         1 <0>         0.0622
     76 H33        -1.4861   -0.0829   -1.9233 H         1 <0>         0.0321
     77 H34        -1.0136    1.3790   -2.8073 H         1 <0>         0.0204
     78 H35        -2.3647   -1.1082    1.5019 H         1 <0>         0.0749
     79 H36        -5.6447   -3.0594   -1.2687 H         1 <0>         0.0719
     80 H37        -4.1195    0.0762    4.7551 H         1 <0>         0.0609
     81 H38         0.9010    1.7469   -1.2960 H         1 <0>         0.1063
     82 H39         2.1991   -4.8480   -3.4369 H         1 <0>         0.4792
     83 H40         3.3965   -5.2682   -4.6214 H         1 <0>         0.4819
     84 H41         5.1508   -2.0934   -4.5734 H         1 <0>         0.4802
     85 H42         5.1022   -3.6820   -5.2818 H         1 <0>         0.4826
     86 H43         0.8216    0.7626    0.7549 H         1 <0>         0.3101
     87 H44        -4.7231   -2.7191    2.1790 H         1 <0>         0.3087
     88 H45         2.2384   -2.6406   -2.4346 H         1 <0>         0.4846
     89 H46       -10.6756   -6.8692   -2.0272 H         1 <0>         0.4194
     90 H47         1.8515   -6.8926    0.0654 H         1 <0>         0.4036
     91 H48        -1.9874    1.1133   -0.1822 H         1 <0>         0.4114
     92 H49        -7.2229   -2.7477    0.7466 H         1 <0>         0.3944
@<TRIPOS>BOND
     1    1    3 ar
     2    1    5 ar
     3    2    4 ar
     4    2    5 ar
     5    3    6 ar
     6    4    6 ar
     7    5   21 1
     8    6   40 1
     9    7   15 1
    10    7   34 am
    11    7   37 2
    12    8   27 1
    13    8   31 am
    14    8   38 2
    15    9   28 1
    16    9   35 am
    17    9   39 2
    18   10   32 1
    19   10   33 1
    20   10   36 1
    21   11   12 1
    22   11   16 1
    23   12   18 1
    24   13   15 1
    25   13   16 1
    26   14   17 1
    27   14   18 1
    28   15   31 1
    29   16   17 1
    30   17   31 1
    31   18   41 1
    32   19   29 1
    33   20   29 1
    34   21   28 1
    35   22   23 1
    36   22   25 1
    37   23   30 1
    38   24   27 1
    39   24   29 1
    40   25   36 1
    41   26   30 1
    42   26   42 1
    43   27   35 1
    44   28   43 1
    45   30   34 1
    46    1   44 1
    47    2   45 1
    48    3   46 1
    49    4   47 1
    50   11   48 1
    51   11   49 1
    52   12   50 1
    53   12   51 1
    54   13   52 1
    55   13   53 1
    56   14   54 1
    57   14   55 1
    58   15   56 1
    59   16   57 1
    60   17   58 1
    61   18   59 1
    62   19   60 1
    63   19   61 1
    64   19   62 1
    65   20   63 1
    66   20   64 1
    67   20   65 1
    68   21   66 1
    69   21   67 1
    70   22   68 1
    71   22   69 1
    72   23   70 1
    73   23   71 1
    74   24   72 1
    75   24   73 1
    76   25   74 1
    77   25   75 1
    78   26   76 1
    79   26   77 1
    80   27   78 1
    81   28   79 1
    82   29   80 1
    83   30   81 1
    84   32   82 1
    85   32   83 1
    86   33   84 1
    87   33   85 1
    88   34   86 1
    89   35   87 1
    90   36   88 1
    91   40   89 1
    92   41   90 1
    93   42   91 1
    94   43   92 1
@<TRIPOS>MOLECULE
1a2c_ligand_34
   92    94     0     0     0
SMALL
USER_CHARGES

mmff94s_NoEstat = 107.05
@<TRIPOS>ATOM
      1 C1         -8.1123   -5.1215    0.2464 C.ar      1 <0>        -0.0708
      2 C2         -6.5169   -6.0095   -1.3358 C.ar      1 <0>        -0.0872
      3 C3         -9.1310   -5.8431   -0.3759 C.ar      1 <0>        -0.2241
      4 C4         -7.5356   -6.7311   -1.9580 C.ar      1 <0>        -0.1600
      5 C5         -6.8190   -5.2144   -0.2419 C.ar      1 <0>        -0.1356
      6 C6         -8.8427   -6.6480   -1.4781 C.ar      1 <0>         0.1290
      7 C7         -0.0512   -1.0561    0.2993 C.2       1 <0>         0.6664
      8 C8         -1.8469   -3.0457    2.1630 C.2       1 <0>         0.6651
      9 C9         -4.1811   -2.4610    0.1870 C.2       1 <0>         0.6454
     10 C10        -5.8556    0.9273   -2.0206 C.cat     1 <0>         0.6349
     11 C11         2.5186   -3.1911    0.6823 C.3       1 <0>        -0.0642
     12 C12         2.4580   -4.6414    0.2376 C.3       1 <0>        -0.0747
     13 C13         1.4874   -1.4827    2.2418 C.3       1 <0>        -0.0873
     14 C14         0.4946   -5.0934    1.7133 C.3       1 <0>        -0.1371
     15 C15         0.0412   -1.4176    1.7503 C.3       1 <0>         0.0360
     16 C16         1.8865   -2.9529    2.0632 C.3       1 <0>        -0.0720
     17 C17         0.5665   -3.7001    2.3454 C.3       1 <0>         0.1201
     18 C18         1.0248   -5.1525    0.2868 C.3       1 <0>         0.1453
     19 C19        -5.3726   -0.5418    3.1302 C.3       1 <0>        -0.0968
     20 C20        -3.4397    1.0389    2.9738 C.3       1 <0>        -0.0986
     21 C21        -5.7160   -4.4337    0.4322 C.3       1 <0>        -0.0191
     22 C22        -2.1258    0.5661   -1.5204 C.3       1 <0>        -0.1009
     23 C23        -0.8794    1.4488   -1.6540 C.3       1 <0>        -0.0942
     24 C24        -2.9973   -1.3585    3.5851 C.3       1 <0>        -0.0988
     25 C25        -3.3881    1.3349   -1.9043 C.3       1 <0>         0.1966
     26 C26         1.6856    1.6412   -1.5001 C.3       1 <0>         0.1128
     27 C27        -2.7865   -1.8644    2.1628 C.3       1 <0>         0.0786
     28 C28        -5.5432   -3.0384   -0.1771 C.3       1 <0>         0.0744
     29 C29        -3.9969   -0.1898    3.6979 C.3       1 <0>        -0.0678
     30 C30         0.4555    0.7445   -1.3388 C.3       1 <0>         0.1065
     31 N1         -0.4979   -2.7598    1.9615 N.am      1 <0>        -0.4315
     32 N2         -6.9428    0.0727   -1.8706 N.pl3     1 <0>        -0.8671
     33 N3         -6.0747    2.2368   -2.4342 N.pl3     1 <0>        -0.8581
     34 N4          0.4455    0.1980   -0.0008 N.am      1 <0>        -0.5687
     35 N5         -3.9799   -2.3853    1.5634 N.am      1 <0>        -0.5746
     36 N6         -4.5467    0.4857   -1.7606 N.pl3     1 <0>        -0.7533
     37 O1         -0.5362   -1.8555   -0.4928 O.2       1 <0>        -0.5843
     38 O2         -2.2998   -4.1783    2.3409 O.2       1 <0>        -0.6812
     39 O3         -3.3708   -2.0954   -0.6616 O.2       1 <0>        -0.5788
     40 O4         -9.8364   -7.3534   -2.0842 O.3       1 <0>        -0.4938
     41 O5          0.9879   -6.5072   -0.1510 O.3       1 <0>        -0.6030
     42 O6          2.8639    0.9021   -1.2063 O.3       1 <0>        -0.5860
     43 O7         -6.5451   -2.1786    0.3468 O.3       1 <0>        -0.6021
     44 H1         -8.3466   -4.4971    1.1042 H         1 <0>         0.1412
     45 H2         -5.5013   -6.0806   -1.7164 H         1 <0>         0.1451
     46 H3        -10.1470   -5.7743    0.0027 H         1 <0>         0.1336
     47 H4         -7.3045   -7.3572   -2.8158 H         1 <0>         0.1567
     48 H5          3.5627   -2.8549    0.7003 H         1 <0>         0.0649
     49 H6          2.0259   -2.5829   -0.0837 H         1 <0>         0.0476
     50 H7          2.8567   -4.7427   -0.7790 H         1 <0>         0.0641
     51 H8          3.1032   -5.2618    0.8729 H         1 <0>         0.0484
     52 H9          2.1569   -0.7868    1.7257 H         1 <0>         0.0596
     53 H10         1.5124   -1.2395    3.3116 H         1 <0>         0.0757
     54 H11         1.0921   -5.7802    2.3299 H         1 <0>         0.0782
     55 H12        -0.5175   -5.5090    1.7393 H         1 <0>         0.0812
     56 H13        -0.5378   -0.6778    2.3126 H         1 <0>         0.0731
     57 H14         2.6304   -3.2407    2.8169 H         1 <0>         0.0511
     58 H15         0.4523   -3.8218    3.4319 H         1 <0>         0.0753
     59 H16         0.3841   -4.5700   -0.3844 H         1 <0>         0.0427
     60 H17        -6.0375    0.3284    3.1563 H         1 <0>         0.0450
     61 H18        -5.8542   -1.3328    3.7128 H         1 <0>         0.0406
     62 H19        -5.2988   -0.8789    2.0908 H         1 <0>         0.0274
     63 H20        -3.3028    0.8425    1.9049 H         1 <0>         0.0476
     64 H21        -4.1178    1.8926    3.0773 H         1 <0>         0.0170
     65 H22        -2.4708    1.3315    3.3922 H         1 <0>         0.0477
     66 H23        -4.7767   -4.9973    0.3545 H         1 <0>         0.0814
     67 H24        -5.9411   -4.3740    1.5044 H         1 <0>         0.0685
     68 H25        -2.0346   -0.3163   -2.1645 H         1 <0>         0.1016
     69 H26        -2.2229    0.1995   -0.4914 H         1 <0>         0.0660
     70 H27        -0.9849    2.3163   -0.9885 H         1 <0>         0.0512
     71 H28        -0.8376    1.8555   -2.6726 H         1 <0>         0.0454
     72 H29        -2.0302   -1.0518    4.0061 H         1 <0>         0.0575
     73 H30        -3.3514   -2.1846    4.2177 H         1 <0>         0.0743
     74 H31        -3.3224    1.6794   -2.9418 H         1 <0>         0.0662
     75 H32        -3.5099    2.2162   -1.2662 H         1 <0>         0.0622
     76 H33         1.6463    2.5133   -0.8391 H         1 <0>         0.0321
     77 H34         1.7645    2.0016   -2.5321 H         1 <0>         0.0204
     78 H35        -2.3647   -1.1082    1.5019 H         1 <0>         0.0749
     79 H36        -5.6447   -3.0594   -1.2687 H         1 <0>         0.0719
     80 H37        -4.1195    0.0762    4.7551 H         1 <0>         0.0609
     81 H38         0.5463   -0.0881   -2.0483 H         1 <0>         0.1063
     82 H39        -6.8306   -0.8927   -1.5726 H         1 <0>         0.4792
     83 H40        -7.8896    0.3935   -2.0598 H         1 <0>         0.4819
     84 H41        -5.3026    2.8880   -2.5541 H         1 <0>         0.4802
     85 H42        -7.0134    2.5781   -2.6268 H         1 <0>         0.4826
     86 H43         0.8216    0.7626    0.7549 H         1 <0>         0.3101
     87 H44        -4.7231   -2.7191    2.1790 H         1 <0>         0.3087
     88 H45        -4.4422   -0.4904   -1.4580 H         1 <0>         0.4846
     89 H46       -10.6756   -6.8692   -2.0272 H         1 <0>         0.4194
     90 H47         1.8515   -6.8926    0.0654 H         1 <0>         0.4036
     91 H48         2.9483    0.8828   -0.2393 H         1 <0>         0.4114
     92 H49        -7.2229   -2.7477    0.7466 H         1 <0>         0.3944
@<TRIPOS>BOND
     1    1    3 ar
     2    1    5 ar
     3    2    4 ar
     4    2    5 ar
     5    3    6 ar
     6    4    6 ar
     7    5   21 1
     8    6   40 1
     9    7   15 1
    10    7   34 am
    11    7   37 2
    12    8   27 1
    13    8   31 am
    14    8   38 2
    15    9   28 1
    16    9   35 am
    17    9   39 2
    18   10   32 1
    19   10   33 1
    20   10   36 1
    21   11   12 1
    22   11   16 1
    23   12   18 1
    24   13   15 1
    25   13   16 1
    26   14   17 1
    27   14   18 1
    28   15   31 1
    29   16   17 1
    30   17   31 1
    31   18   41 1
    32   19   29 1
    33   20   29 1
    34   21   28 1
    35   22   23 1
    36   22   25 1
    37   23   30 1
    38   24   27 1
    39   24   29 1
    40   25   36 1
    41   26   30 1
    42   26   42 1
    43   27   35 1
    44   28   43 1
    45   30   34 1
    46    1   44 1
    47    2   45 1
    48    3   46 1
    49    4   47 1
    50   11   48 1
    51   11   49 1
    52   12   50 1
    53   12   51 1
    54   13   52 1
    55   13   53 1
    56   14   54 1
    57   14   55 1
    58   15   56 1
    59   16   57 1
    60   17   58 1
    61   18   59 1
    62   19   60 1
    63   19   61 1
    64   19   62 1
    65   20   63 1
    66   20   64 1
    67   20   65 1
    68   21   66 1
    69   21   67 1
    70   22   68 1
    71   22   69 1
    72   23   70 1
    73   23   71 1
    74   24   72 1
    75   24   73 1
    76   25   74 1
    77   25   75 1
    78   26   76 1
    79   26   77 1
    80   27   78 1
    81   28   79 1
    82   29   80 1
    83   30   81 1
    84   32   82 1
    85   32   83 1
    86   33   84 1
    87   33   85 1
    88   34   86 1
    89   35   87 1
    90   36   88 1
    91   40   89 1
    92   41   90 1
    93   42   91 1
    94   43   92 1
@<TRIPOS>MOLECULE
1a2c_ligand_35
   92    94     0     0     0
SMALL
USER_CHARGES

mmff94s_NoEstat = 107.08
@<TRIPOS>ATOM
      1 C1         -8.4286   -3.4392   -2.9028 C.ar      1 <0>        -0.0708
      2 C2         -6.6126   -4.0964   -4.3544 C.ar      1 <0>        -0.0872
      3 C3         -9.3452   -3.7607   -3.9040 C.ar      1 <0>        -0.2241
      4 C4         -7.5291   -4.4179   -5.3555 C.ar      1 <0>        -0.1600
      5 C5         -7.0747   -3.6114   -3.1414 C.ar      1 <0>        -0.1356
      6 C6         -8.8954   -4.2501   -5.1304 C.ar      1 <0>         0.1290
      7 C7         -0.1674   -1.0853   -0.0424 C.2       1 <0>         0.6664
      8 C8         -2.5997   -3.1326    0.7250 C.2       1 <0>         0.6651
      9 C9         -4.3299   -1.6044   -1.3634 C.2       1 <0>         0.6454
     10 C10        -3.9129    3.3143   -1.1794 C.cat     1 <0>         0.6349
     11 C11         2.0445   -3.7524    0.2047 C.3       1 <0>        -0.0642
     12 C12         2.1951   -5.1517   -0.3975 C.3       1 <0>        -0.0747
     13 C13         0.7864   -2.3272    1.9103 C.3       1 <0>        -0.0873
     14 C14        -0.3466   -4.9962   -0.4055 C.3       1 <0>        -0.1371
     15 C15        -0.4770   -1.8334    1.2187 C.3       1 <0>         0.0360
     16 C16         1.0305   -3.7327    1.3503 C.3       1 <0>        -0.0720
     17 C17        -0.3661   -4.2312    0.9284 C.3       1 <0>         0.1201
     18 C18         0.8694   -5.9135   -0.5141 C.3       1 <0>         0.1453
     19 C19        -5.9631   -0.4404    1.7581 C.3       1 <0>        -0.0968
     20 C20        -3.8887    0.7550    2.4841 C.3       1 <0>        -0.0986
     21 C21        -6.0825   -3.2640   -2.0573 C.3       1 <0>        -0.0191
     22 C22        -0.3657    2.9388    0.0730 C.3       1 <0>        -0.1009
     23 C23         0.9718    2.4190   -0.4671 C.3       1 <0>        -0.0942
     24 C24        -3.8619   -1.7555    2.3678 C.3       1 <0>        -0.0988
     25 C25        -1.4736    2.7918   -0.9676 C.3       1 <0>         0.1966
     26 C26         2.3035    0.4585   -1.4784 C.3       1 <0>         0.1128
     27 C27        -3.3800   -1.8574    0.9254 C.3       1 <0>         0.0786
     28 C28        -5.6231   -1.8048   -2.1437 C.3       1 <0>         0.0744
     29 C29        -4.7285   -0.5135    2.6578 C.3       1 <0>        -0.0678
     30 C30         0.9627    0.9465   -0.9241 C.3       1 <0>         0.1065
     31 N1         -1.2224   -3.0398    0.8850 N.am      1 <0>        -0.4315
     32 N2         -5.0903    3.8087   -0.6278 N.pl3     1 <0>        -0.8671
     33 N3         -3.9255    2.8321   -2.4837 N.pl3     1 <0>        -0.8581
     34 N4          0.5562    0.0753    0.1551 N.am      1 <0>        -0.5687
     35 N5         -4.4491   -1.9660   -0.0233 N.am      1 <0>        -0.5746
     36 N6         -2.7184    3.2966   -0.4387 N.pl3     1 <0>        -0.7533
     37 O1         -0.5544   -1.5275   -1.1177 O.2       1 <0>        -0.5843
     38 O2         -3.1933   -4.1752    0.4418 O.2       1 <0>        -0.6812
     39 O3         -3.3092   -1.1565   -1.8810 O.2       1 <0>        -0.5788
     40 O4         -9.7898   -4.5653   -6.1067 O.3       1 <0>        -0.4938
     41 O5          0.7872   -6.8901    0.5248 O.3       1 <0>        -0.6030
     42 O6          3.3063    0.5601   -0.4760 O.3       1 <0>        -0.5860
     43 O7         -6.6213   -0.9719   -1.5714 O.3       1 <0>        -0.6021
     44 H1         -8.7885   -3.0585   -1.9509 H         1 <0>         0.1412
     45 H2         -5.5498   -4.2307   -4.5386 H         1 <0>         0.1451
     46 H3        -10.4080   -3.6279   -3.7225 H         1 <0>         0.1336
     47 H4         -7.1725   -4.7996   -6.3086 H         1 <0>         0.1567
     48 H5          3.0220   -3.4003    0.5555 H         1 <0>         0.0649
     49 H6          1.7363   -3.0584   -0.5866 H         1 <0>         0.0476
     50 H7          2.6388   -5.0399   -1.3944 H         1 <0>         0.0641
     51 H8          2.9088   -5.7297    0.2024 H         1 <0>         0.0484
     52 H9          1.6439   -1.6583    1.7836 H         1 <0>         0.0596
     53 H10         0.5887   -2.4119    2.9867 H         1 <0>         0.0757
     54 H11        -1.2632   -5.5927   -0.4872 H         1 <0>         0.0782
     55 H12        -0.3526   -4.2949   -1.2498 H         1 <0>         0.0812
     56 H13        -1.0651   -1.1731    1.8629 H         1 <0>         0.0731
     57 H14         1.4245   -4.3763    2.1480 H         1 <0>         0.0511
     58 H15        -0.7725   -4.8823    1.7135 H         1 <0>         0.0753
     59 H16         0.8433   -6.4624   -1.4612 H         1 <0>         0.0427
     60 H17        -6.5181    0.4873    1.9352 H         1 <0>         0.0450
     61 H18        -6.6497   -1.2692    1.9547 H         1 <0>         0.0406
     62 H19        -5.6850   -0.4702    0.6992 H         1 <0>         0.0274
     63 H20        -3.5277    0.8553    1.4548 H         1 <0>         0.0476
     64 H21        -4.4764    1.6472    2.7254 H         1 <0>         0.0170
     65 H22        -3.0188    0.7404    3.1493 H         1 <0>         0.0477
     66 H23        -5.2172   -3.9361   -2.1324 H         1 <0>         0.0814
     67 H24        -6.5443   -3.4784   -1.0853 H         1 <0>         0.0685
     68 H25        -0.6484    2.3866    0.9768 H         1 <0>         0.1016
     69 H26        -0.2753    3.9932    0.3603 H         1 <0>         0.0660
     70 H27         1.7402    2.5418    0.3082 H         1 <0>         0.0512
     71 H28         1.2882    3.0521   -1.3060 H         1 <0>         0.0454
     72 H29        -2.9928   -1.7573    3.0396 H         1 <0>         0.0575
     73 H30        -4.4407   -2.6540    2.6237 H         1 <0>         0.0743
     74 H31        -1.6009    1.7390   -1.2410 H         1 <0>         0.0662
     75 H32        -1.2215    3.3457   -1.8778 H         1 <0>         0.0622
     76 H33         2.6215    1.0387   -2.3510 H         1 <0>         0.0321
     77 H34         2.2342   -0.5935   -1.7781 H         1 <0>         0.0204
     78 H35        -2.7366   -1.0282    0.6336 H         1 <0>         0.0749
     79 H36        -5.4683   -1.4913   -3.1829 H         1 <0>         0.0719
     80 H37        -5.0656   -0.5471    3.7011 H         1 <0>         0.0609
     81 H38         0.2159    0.8710   -1.7251 H         1 <0>         0.1063
     82 H39        -5.1291    4.1693    0.3217 H         1 <0>         0.4792
     83 H40        -5.9543    3.8203   -1.1649 H         1 <0>         0.4819
     84 H41        -3.0827    2.4636   -2.9177 H         1 <0>         0.4802
     85 H42        -4.7781    2.8363   -3.0385 H         1 <0>         0.4826
     86 H43         0.8147    0.3282    1.1041 H         1 <0>         0.3101
     87 H44        -5.3471   -2.3283    0.3008 H         1 <0>         0.3087
     88 H45        -2.7657    3.6647    0.5191 H         1 <0>         0.4846
     89 H46       -10.5620   -3.9795   -6.0573 H         1 <0>         0.4194
     90 H47         1.3049   -6.5470    1.2701 H         1 <0>         0.4036
     91 H48         3.5968    1.4864   -0.4636 H         1 <0>         0.4114
     92 H49        -7.4309   -1.5047   -1.5105 H         1 <0>         0.3944
@<TRIPOS>BOND
     1    1    3 ar
     2    1    5 ar
     3    2    4 ar
     4    2    5 ar
     5    3    6 ar
     6    4    6 ar
     7    5   21 1
     8    6   40 1
     9    7   15 1
    10    7   34 am
    11    7   37 2
    12    8   27 1
    13    8   31 am
    14    8   38 2
    15    9   28 1
    16    9   35 am
    17    9   39 2
    18   10   32 1
    19   10   33 1
    20   10   36 1
    21   11   12 1
    22   11   16 1
    23   12   18 1
    24   13   15 1
    25   13   16 1
    26   14   17 1
    27   14   18 1
    28   15   31 1
    29   16   17 1
    30   17   31 1
    31   18   41 1
    32   19   29 1
    33   20   29 1
    34   21   28 1
    35   22   23 1
    36   22   25 1
    37   23   30 1
    38   24   27 1
    39   24   29 1
    40   25   36 1
    41   26   30 1
    42   26   42 1
    43   27   35 1
    44   28   43 1
    45   30   34 1
    46    1   44 1
    47    2   45 1
    48    3   46 1
    49    4   47 1
    50   11   48 1
    51   11   49 1
    52   12   50 1
    53   12   51 1
    54   13   52 1
    55   13   53 1
    56   14   54 1
    57   14   55 1
    58   15   56 1
    59   16   57 1
    60   17   58 1
    61   18   59 1
    62   19   60 1
    63   19   61 1
    64   19   62 1
    65   20   63 1
    66   20   64 1
    67   20   65 1
    68   21   66 1
    69   21   67 1
    70   22   68 1
    71   22   69 1
    72   23   70 1
    73   23   71 1
    74   24   72 1
    75   24   73 1
    76   25   74 1
    77   25   75 1
    78   26   76 1
    79   26   77 1
    80   27   78 1
    81   28   79 1
    82   29   80 1
    83   30   81 1
    84   32   82 1
    85   32   83 1
    86   33   84 1
    87   33   85 1
    88   34   86 1
    89   35   87 1
    90   36   88 1
    91   40   89 1
    92   41   90 1
    93   42   91 1
    94   43   92 1
@<TRIPOS>MOLECULE
1a2c_ligand_36
   92    94     0     0     0
SMALL
USER_CHARGES

mmff94s_NoEstat = 107.10
@<TRIPOS>ATOM
      1 C1         -7.5527   -1.5181   -4.8480 C.ar      1 <0>        -0.0708
      2 C2         -7.9255    0.3067   -3.3092 C.ar      1 <0>        -0.0872
      3 C3         -8.8536   -1.3766   -5.3310 C.ar      1 <0>        -0.2241
      4 C4         -9.2264    0.4482   -3.7921 C.ar      1 <0>        -0.1600
      5 C5         -7.1061   -0.6745   -3.8436 C.ar      1 <0>        -0.1356
      6 C6         -9.6905   -0.3934   -4.8030 C.ar      1 <0>         0.1290
      7 C7         -0.1674   -1.0853   -0.0424 C.2       1 <0>         0.6664
      8 C8         -2.5997   -3.1326    0.7250 C.2       1 <0>         0.6651
      9 C9         -4.3299   -1.6044   -1.3634 C.2       1 <0>         0.6454
     10 C10         0.2119    6.5979   -0.6814 C.cat     1 <0>         0.6349
     11 C11         2.0445   -3.7524    0.2047 C.3       1 <0>        -0.0642
     12 C12         2.1951   -5.1517   -0.3975 C.3       1 <0>        -0.0747
     13 C13         0.7864   -2.3272    1.9103 C.3       1 <0>        -0.0873
     14 C14        -0.3466   -4.9962   -0.4055 C.3       1 <0>        -0.1371
     15 C15        -0.4770   -1.8334    1.2187 C.3       1 <0>         0.0360
     16 C16         1.0305   -3.7327    1.3503 C.3       1 <0>        -0.0720
     17 C17        -0.3661   -4.2312    0.9284 C.3       1 <0>         0.1201
     18 C18         0.8694   -5.9135   -0.5141 C.3       1 <0>         0.1453
     19 C19        -5.9631   -0.4404    1.7581 C.3       1 <0>        -0.0968
     20 C20        -3.8887    0.7550    2.4841 C.3       1 <0>        -0.0986
     21 C21        -5.6975   -0.8273   -3.3213 C.3       1 <0>        -0.0191
     22 C22        -0.3657    2.9388    0.0730 C.3       1 <0>        -0.1009
     23 C23         0.9718    2.4190   -0.4671 C.3       1 <0>        -0.0942
     24 C24        -3.8619   -1.7555    2.3678 C.3       1 <0>        -0.0988
     25 C25        -0.2710    4.4161    0.4476 C.3       1 <0>         0.1966
     26 C26         2.3035    0.4585   -1.4784 C.3       1 <0>         0.1128
     27 C27        -3.3800   -1.8574    0.9254 C.3       1 <0>         0.0786
     28 C28        -5.6231   -1.8048   -2.1437 C.3       1 <0>         0.0744
     29 C29        -4.7285   -0.5135    2.6578 C.3       1 <0>        -0.0678
     30 C30         0.9627    0.9465   -0.9241 C.3       1 <0>         0.1065
     31 N1         -1.2224   -3.0398    0.8850 N.am      1 <0>        -0.4315
     32 N2          0.5502    7.3118   -1.8263 N.pl3     1 <0>        -0.8671
     33 N3          0.0065    7.2851    0.5101 N.pl3     1 <0>        -0.8581
     34 N4          0.5562    0.0753    0.1551 N.am      1 <0>        -0.5687
     35 N5         -4.4491   -1.9660   -0.0233 N.am      1 <0>        -0.5746
     36 N6          0.0761    5.1992   -0.7144 N.pl3     1 <0>        -0.7533
     37 O1         -0.5544   -1.5275   -1.1177 O.2       1 <0>        -0.5843
     38 O2         -3.1933   -4.1752    0.4418 O.2       1 <0>        -0.6812
     39 O3         -3.3092   -1.1565   -1.8810 O.2       1 <0>        -0.5788
     40 O4        -10.9594   -0.2543   -5.2754 O.3       1 <0>        -0.4938
     41 O5          0.7872   -6.8901    0.5248 O.3       1 <0>        -0.6030
     42 O6          3.3063    0.5601   -0.4760 O.3       1 <0>        -0.5860
     43 O7         -5.6385   -3.1336   -2.6450 O.3       1 <0>        -0.6021
     44 H1         -6.9082   -2.2870   -5.2653 H         1 <0>         0.1412
     45 H2         -7.5723    0.9672   -2.5215 H         1 <0>         0.1451
     46 H3         -9.2092   -2.0351   -6.1185 H         1 <0>         0.1336
     47 H4         -9.8734    1.2168   -3.3774 H         1 <0>         0.1567
     48 H5          3.0220   -3.4003    0.5555 H         1 <0>         0.0649
     49 H6          1.7363   -3.0584   -0.5866 H         1 <0>         0.0476
     50 H7          2.6388   -5.0399   -1.3944 H         1 <0>         0.0641
     51 H8          2.9088   -5.7297    0.2024 H         1 <0>         0.0484
     52 H9          1.6439   -1.6583    1.7836 H         1 <0>         0.0596
     53 H10         0.5887   -2.4119    2.9867 H         1 <0>         0.0757
     54 H11        -1.2632   -5.5927   -0.4872 H         1 <0>         0.0782
     55 H12        -0.3526   -4.2949   -1.2498 H         1 <0>         0.0812
     56 H13        -1.0651   -1.1731    1.8629 H         1 <0>         0.0731
     57 H14         1.4245   -4.3763    2.1480 H         1 <0>         0.0511
     58 H15        -0.7725   -4.8823    1.7135 H         1 <0>         0.0753
     59 H16         0.8433   -6.4624   -1.4612 H         1 <0>         0.0427
     60 H17        -6.5181    0.4873    1.9352 H         1 <0>         0.0450
     61 H18        -6.6497   -1.2692    1.9547 H         1 <0>         0.0406
     62 H19        -5.6850   -0.4702    0.6992 H         1 <0>         0.0274
     63 H20        -3.5277    0.8553    1.4548 H         1 <0>         0.0476
     64 H21        -4.4764    1.6472    2.7254 H         1 <0>         0.0170
     65 H22        -3.0188    0.7404    3.1493 H         1 <0>         0.0477
     66 H23        -5.3173    0.1573   -3.0178 H         1 <0>         0.0814
     67 H24        -5.0558   -1.1533   -4.1495 H         1 <0>         0.0685
     68 H25        -1.1525    2.8103   -0.6795 H         1 <0>         0.1016
     69 H26        -0.6706    2.3600    0.9531 H         1 <0>         0.0660
     70 H27         1.7402    2.5418    0.3082 H         1 <0>         0.0512
     71 H28         1.2882    3.0521   -1.3060 H         1 <0>         0.0454
     72 H29        -2.9928   -1.7573    3.0396 H         1 <0>         0.0575
     73 H30        -4.4407   -2.6540    2.6237 H         1 <0>         0.0743
     74 H31         0.4908    4.5641    1.2204 H         1 <0>         0.0662
     75 H32        -1.2260    4.7731    0.8467 H         1 <0>         0.0622
     76 H33         2.6215    1.0387   -2.3510 H         1 <0>         0.0321
     77 H34         2.2342   -0.5935   -1.7781 H         1 <0>         0.0204
     78 H35        -2.7366   -1.0282    0.6336 H         1 <0>         0.0749
     79 H36        -6.4753   -1.6838   -1.4644 H         1 <0>         0.0719
     80 H37        -5.0656   -0.5471    3.7011 H         1 <0>         0.0609
     81 H38         0.2159    0.8710   -1.7251 H         1 <0>         0.1063
     82 H39         0.7116    6.8520   -2.7184 H         1 <0>         0.4792
     83 H40         0.6487    8.3241   -1.8007 H         1 <0>         0.4819
     84 H41        -0.2418    6.7944    1.3657 H         1 <0>         0.4802
     85 H42         0.0982    8.2971    0.5568 H         1 <0>         0.4826
     86 H43         0.8147    0.3282    1.1041 H         1 <0>         0.3101
     87 H44        -5.3471   -2.3283    0.3008 H         1 <0>         0.3087
     88 H45         0.2389    4.7426   -1.6201 H         1 <0>         0.4846
     89 H46       -11.3134   -1.1161   -5.5473 H         1 <0>         0.4194
     90 H47         1.3049   -6.5470    1.2701 H         1 <0>         0.4036
     91 H48         3.5968    1.4864   -0.4636 H         1 <0>         0.4114
     92 H49        -5.9469   -3.0835   -3.5645 H         1 <0>         0.3944
@<TRIPOS>BOND
     1    1    3 ar
     2    1    5 ar
     3    2    4 ar
     4    2    5 ar
     5    3    6 ar
     6    4    6 ar
     7    5   21 1
     8    6   40 1
     9    7   15 1
    10    7   34 am
    11    7   37 2
    12    8   27 1
    13    8   31 am
    14    8   38 2
    15    9   28 1
    16    9   35 am
    17    9   39 2
    18   10   32 1
    19   10   33 1
    20   10   36 1
    21   11   12 1
    22   11   16 1
    23   12   18 1
    24   13   15 1
    25   13   16 1
    26   14   17 1
    27   14   18 1
    28   15   31 1
    29   16   17 1
    30   17   31 1
    31   18   41 1
    32   19   29 1
    33   20   29 1
    34   21   28 1
    35   22   23 1
    36   22   25 1
    37   23   30 1
    38   24   27 1
    39   24   29 1
    40   25   36 1
    41   26   30 1
    42   26   42 1
    43   27   35 1
    44   28   43 1
    45   30   34 1
    46    1   44 1
    47    2   45 1
    48    3   46 1
    49    4   47 1
    50   11   48 1
    51   11   49 1
    52   12   50 1
    53   12   51 1
    54   13   52 1
    55   13   53 1
    56   14   54 1
    57   14   55 1
    58   15   56 1
    59   16   57 1
    60   17   58 1
    61   18   59 1
    62   19   60 1
    63   19   61 1
    64   19   62 1
    65   20   63 1
    66   20   64 1
    67   20   65 1
    68   21   66 1
    69   21   67 1
    70   22   68 1
    71   22   69 1
    72   23   70 1
    73   23   71 1
    74   24   72 1
    75   24   73 1
    76   25   74 1
    77   25   75 1
    78   26   76 1
    79   26   77 1
    80   27   78 1
    81   28   79 1
    82   29   80 1
    83   30   81 1
    84   32   82 1
    85   32   83 1
    86   33   84 1
    87   33   85 1
    88   34   86 1
    89   35   87 1
    90   36   88 1
    91   40   89 1
    92   41   90 1
    93   42   91 1
    94   43   92 1
@<TRIPOS>MOLECULE
1a2c_ligand_37
   92    94     0     0     0
SMALL
USER_CHARGES

mmff94s_NoEstat = 107.11
@<TRIPOS>ATOM
      1 C1         -8.6272   -2.8492   -1.4308 C.ar      1 <0>        -0.0708
      2 C2         -8.6280   -2.4747    0.9560 C.ar      1 <0>        -0.0872
      3 C3         -9.9370   -3.3232   -1.3568 C.ar      1 <0>        -0.2241
      4 C4         -9.9377   -2.9488    1.0300 C.ar      1 <0>        -0.1600
      5 C5         -7.9904   -2.4312   -0.2734 C.ar      1 <0>        -0.1356
      6 C6        -10.5923   -3.3731   -0.1264 C.ar      1 <0>         0.1290
      7 C7         -0.0512   -1.0561    0.2993 C.2       1 <0>         0.6664
      8 C8         -1.8469   -3.0457    2.1630 C.2       1 <0>         0.6651
      9 C9         -4.1811   -2.4610    0.1870 C.2       1 <0>         0.6454
     10 C10        -2.1772   -1.1627   -4.7494 C.cat     1 <0>         0.6349
     11 C11         2.5186   -3.1911    0.6823 C.3       1 <0>        -0.0642
     12 C12         2.4580   -4.6414    0.2376 C.3       1 <0>        -0.0747
     13 C13         1.4874   -1.4827    2.2418 C.3       1 <0>        -0.0873
     14 C14         0.4946   -5.0934    1.7133 C.3       1 <0>        -0.1371
     15 C15         0.0412   -1.4176    1.7503 C.3       1 <0>         0.0360
     16 C16         1.8865   -2.9529    2.0632 C.3       1 <0>        -0.0720
     17 C17         0.5665   -3.7001    2.3454 C.3       1 <0>         0.1201
     18 C18         1.0248   -5.1525    0.2868 C.3       1 <0>         0.1453
     19 C19        -5.3726   -0.5418    3.1302 C.3       1 <0>        -0.0968
     20 C20        -3.4397    1.0389    2.9738 C.3       1 <0>        -0.0986
     21 C21        -6.5727   -1.9173   -0.3536 C.3       1 <0>        -0.0191
     22 C22        -0.9951    2.0137   -3.0747 C.3       1 <0>        -0.1009
     23 C23        -0.8794    1.4488   -1.6540 C.3       1 <0>        -0.0942
     24 C24        -2.9973   -1.3585    3.5851 C.3       1 <0>        -0.0988
     25 C25        -0.9093    0.9015   -4.1176 C.3       1 <0>         0.1966
     26 C26         1.6856    1.6412   -1.5001 C.3       1 <0>         0.1128
     27 C27        -2.7865   -1.8644    2.1628 C.3       1 <0>         0.0786
     28 C28        -5.5432   -3.0384   -0.1771 C.3       1 <0>         0.0744
     29 C29        -3.9969   -0.1898    3.6979 C.3       1 <0>        -0.0678
     30 C30         0.4555    0.7445   -1.3388 C.3       1 <0>         0.1065
     31 N1         -0.4979   -2.7598    1.9615 N.am      1 <0>        -0.4315
     32 N2         -3.2267   -2.0473   -4.5232 N.pl3     1 <0>        -0.8671
     33 N3         -1.3100   -1.3971   -5.8110 N.pl3     1 <0>        -0.8581
     34 N4          0.4455    0.1980   -0.0008 N.am      1 <0>        -0.5687
     35 N5         -3.9799   -2.3853    1.5634 N.am      1 <0>        -0.5746
     36 N6         -1.9845   -0.0421   -3.9232 N.pl3     1 <0>        -0.7533
     37 O1         -0.5362   -1.8555   -0.4928 O.2       1 <0>        -0.5843
     38 O2         -2.2998   -4.1783    2.3409 O.2       1 <0>        -0.6812
     39 O3         -3.3708   -2.0954   -0.6616 O.2       1 <0>        -0.5788
     40 O4        -11.8709   -3.8342   -0.0545 O.3       1 <0>        -0.4938
     41 O5          0.9879   -6.5072   -0.1510 O.3       1 <0>        -0.6030
     42 O6          1.5971    2.7470   -0.6113 O.3       1 <0>        -0.5860
     43 O7         -5.4138   -3.7436   -1.4033 O.3       1 <0>        -0.6021
     44 H1         -8.1249   -2.8142   -2.3937 H         1 <0>         0.1412
     45 H2         -8.1259   -2.1460    1.8623 H         1 <0>         0.1451
     46 H3        -10.4414   -3.6521   -2.2611 H         1 <0>         0.1336
     47 H4        -10.4433   -2.9843    1.9914 H         1 <0>         0.1567
     48 H5          3.5627   -2.8549    0.7003 H         1 <0>         0.0649
     49 H6          2.0259   -2.5829   -0.0837 H         1 <0>         0.0476
     50 H7          2.8567   -4.7427   -0.7790 H         1 <0>         0.0641
     51 H8          3.1032   -5.2618    0.8729 H         1 <0>         0.0484
     52 H9          2.1569   -0.7868    1.7257 H         1 <0>         0.0596
     53 H10         1.5124   -1.2395    3.3116 H         1 <0>         0.0757
     54 H11         1.0921   -5.7802    2.3299 H         1 <0>         0.0782
     55 H12        -0.5175   -5.5090    1.7393 H         1 <0>         0.0812
     56 H13        -0.5378   -0.6778    2.3126 H         1 <0>         0.0731
     57 H14         2.6304   -3.2407    2.8169 H         1 <0>         0.0511
     58 H15         0.4523   -3.8218    3.4319 H         1 <0>         0.0753
     59 H16         0.3841   -4.5700   -0.3844 H         1 <0>         0.0427
     60 H17        -6.0375    0.3284    3.1563 H         1 <0>         0.0450
     61 H18        -5.8542   -1.3328    3.7128 H         1 <0>         0.0406
     62 H19        -5.2988   -0.8789    2.0908 H         1 <0>         0.0274
     63 H20        -3.3028    0.8425    1.9049 H         1 <0>         0.0476
     64 H21        -4.1178    1.8926    3.0773 H         1 <0>         0.0170
     65 H22        -2.4708    1.3315    3.3922 H         1 <0>         0.0477
     66 H23        -6.4251   -1.1465    0.4146 H         1 <0>         0.0814
     67 H24        -6.4443   -1.4079   -1.3169 H         1 <0>         0.0685
     68 H25        -1.9473    2.5434   -3.1941 H         1 <0>         0.1016
     69 H26        -0.1993    2.7456   -3.2583 H         1 <0>         0.0660
     70 H27        -1.7000    0.7382   -1.4859 H         1 <0>         0.0512
     71 H28        -1.0340    2.2618   -0.9330 H         1 <0>         0.0454
     72 H29        -2.0302   -1.0518    4.0061 H         1 <0>         0.0575
     73 H30        -3.3514   -2.1846    4.2177 H         1 <0>         0.0743
     74 H31         0.0481    0.3762   -4.0351 H         1 <0>         0.0662
     75 H32        -0.9770    1.3169   -5.1283 H         1 <0>         0.0622
     76 H33         1.7842    2.0214   -2.5223 H         1 <0>         0.0321
     77 H34         2.5988    1.0866   -1.2555 H         1 <0>         0.0204
     78 H35        -2.3647   -1.1082    1.5019 H         1 <0>         0.0749
     79 H36        -5.8508   -3.7504    0.5980 H         1 <0>         0.0719
     80 H37        -4.1195    0.0762    4.7551 H         1 <0>         0.0609
     81 H38         0.5463   -0.0881   -2.0483 H         1 <0>         0.1063
     82 H39        -3.8838   -1.9173   -3.7587 H         1 <0>         0.4792
     83 H40        -3.3646   -2.8583   -5.1217 H         1 <0>         0.4819
     84 H41        -0.5324   -0.7707   -6.0048 H         1 <0>         0.4802
     85 H42        -1.4312   -2.2010   -6.4224 H         1 <0>         0.4826
     86 H43         0.8216    0.7626    0.7549 H         1 <0>         0.3101
     87 H44        -4.7231   -2.7191    2.1790 H         1 <0>         0.3087
     88 H45        -2.6541    0.0831   -3.1543 H         1 <0>         0.4846
     89 H46       -12.0198   -4.5188   -0.7260 H         1 <0>         0.4194
     90 H47         1.8515   -6.8926    0.0654 H         1 <0>         0.4036
     91 H48         1.0115    3.3975   -1.0313 H         1 <0>         0.4114
     92 H49        -6.1819   -3.5045   -1.9474 H         1 <0>         0.3944
@<TRIPOS>BOND
     1    1    3 ar
     2    1    5 ar
     3    2    4 ar
     4    2    5 ar
     5    3    6 ar
     6    4    6 ar
     7    5   21 1
     8    6   40 1
     9    7   15 1
    10    7   34 am
    11    7   37 2
    12    8   27 1
    13    8   31 am
    14    8   38 2
    15    9   28 1
    16    9   35 am
    17    9   39 2
    18   10   32 1
    19   10   33 1
    20   10   36 1
    21   11   12 1
    22   11   16 1
    23   12   18 1
    24   13   15 1
    25   13   16 1
    26   14   17 1
    27   14   18 1
    28   15   31 1
    29   16   17 1
    30   17   31 1
    31   18   41 1
    32   19   29 1
    33   20   29 1
    34   21   28 1
    35   22   23 1
    36   22   25 1
    37   23   30 1
    38   24   27 1
    39   24   29 1
    40   25   36 1
    41   26   30 1
    42   26   42 1
    43   27   35 1
    44   28   43 1
    45   30   34 1
    46    1   44 1
    47    2   45 1
    48    3   46 1
    49    4   47 1
    50   11   48 1
    51   11   49 1
    52   12   50 1
    53   12   51 1
    54   13   52 1
    55   13   53 1
    56   14   54 1
    57   14   55 1
    58   15   56 1
    59   16   57 1
    60   17   58 1
    61   18   59 1
    62   19   60 1
    63   19   61 1
    64   19   62 1
    65   20   63 1
    66   20   64 1
    67   20   65 1
    68   21   66 1
    69   21   67 1
    70   22   68 1
    71   22   69 1
    72   23   70 1
    73   23   71 1
    74   24   72 1
    75   24   73 1
    76   25   74 1
    77   25   75 1
    78   26   76 1
    79   26   77 1
    80   27   78 1
    81   28   79 1
    82   29   80 1
    83   30   81 1
    84   32   82 1
    85   32   83 1
    86   33   84 1
    87   33   85 1
    88   34   86 1
    89   35   87 1
    90   36   88 1
    91   40   89 1
    92   41   90 1
    93   42   91 1
    94   43   92 1
@<TRIPOS>MOLECULE
1a2c_ligand_38
   92    94     0     0     0
SMALL
USER_CHARGES

mmff94s_NoEstat = 107.12
@<TRIPOS>ATOM
      1 C1         -7.6915   -4.5534   -2.2285 C.ar      1 <0>        -0.0708
      2 C2         -7.8704   -2.1497   -2.3935 C.ar      1 <0>        -0.0872
      3 C3         -9.0245   -4.6794   -2.6196 C.ar      1 <0>        -0.2241
      4 C4         -9.2033   -2.2757   -2.7846 C.ar      1 <0>        -0.1600
      5 C5         -7.1323   -3.2903   -2.1207 C.ar      1 <0>        -0.1356
      6 C6         -9.7804   -3.5406   -2.8977 C.ar      1 <0>         0.1290
      7 C7         -0.0512   -1.0561    0.2993 C.2       1 <0>         0.6664
      8 C8         -1.8469   -3.0457    2.1630 C.2       1 <0>         0.6651
      9 C9         -4.1811   -2.4610    0.1870 C.2       1 <0>         0.6454
     10 C10        -0.1924    6.4494   -4.0524 C.cat     1 <0>         0.6349
     11 C11         2.5186   -3.1911    0.6823 C.3       1 <0>        -0.0642
     12 C12         2.4580   -4.6414    0.2376 C.3       1 <0>        -0.0747
     13 C13         1.4874   -1.4827    2.2418 C.3       1 <0>        -0.0873
     14 C14         0.4946   -5.0934    1.7133 C.3       1 <0>        -0.1371
     15 C15         0.0412   -1.4176    1.7503 C.3       1 <0>         0.0360
     16 C16         1.8865   -2.9529    2.0632 C.3       1 <0>        -0.0720
     17 C17         0.5665   -3.7001    2.3454 C.3       1 <0>         0.1201
     18 C18         1.0248   -5.1525    0.2868 C.3       1 <0>         0.1453
     19 C19        -5.3726   -0.5418    3.1302 C.3       1 <0>        -0.0968
     20 C20        -3.4397    1.0389    2.9738 C.3       1 <0>        -0.0986
     21 C21        -5.6890   -3.1540   -1.6980 C.3       1 <0>        -0.0191
     22 C22         0.1864    2.9452   -2.6852 C.3       1 <0>        -0.1009
     23 C23         0.2513    2.2726   -1.3090 C.3       1 <0>        -0.0942
     24 C24        -2.9973   -1.3585    3.5851 C.3       1 <0>        -0.0988
     25 C25         0.0377    4.4591   -2.5512 C.3       1 <0>         0.1966
     26 C26         1.7383    0.3016   -2.0469 C.3       1 <0>         0.1128
     27 C27        -2.7865   -1.8644    2.1628 C.3       1 <0>         0.0786
     28 C28        -5.5432   -3.0384   -0.1771 C.3       1 <0>         0.0744
     29 C29        -3.9969   -0.1898    3.6979 C.3       1 <0>        -0.0678
     30 C30         0.4555    0.7445   -1.3388 C.3       1 <0>         0.1065
     31 N1         -0.4979   -2.7598    1.9615 N.am      1 <0>        -0.4315
     32 N2         -0.2513    6.9915   -5.3321 N.pl3     1 <0>        -0.8671
     33 N3         -0.2955    7.2945   -2.9528 N.pl3     1 <0>        -0.8581
     34 N4          0.4455    0.1980   -0.0008 N.am      1 <0>        -0.5687
     35 N5         -3.9799   -2.3853    1.5634 N.am      1 <0>        -0.5746
     36 N6         -0.0310    5.0665   -3.8590 N.pl3     1 <0>        -0.7533
     37 O1         -0.5362   -1.8555   -0.4928 O.2       1 <0>        -0.5843
     38 O2         -2.2998   -4.1783    2.3409 O.2       1 <0>        -0.6812
     39 O3         -3.3708   -2.0954   -0.6616 O.2       1 <0>        -0.5788
     40 O4        -11.0807   -3.6636   -3.2809 O.3       1 <0>        -0.4938
     41 O5          0.9879   -6.5072   -0.1510 O.3       1 <0>        -0.6030
     42 O6          2.8703    0.8436   -1.3793 O.3       1 <0>        -0.5860
     43 O7         -5.6445   -4.3341    0.3961 O.3       1 <0>        -0.6021
     44 H1         -7.1107   -5.4463   -2.0139 H         1 <0>         0.1412
     45 H2         -7.4289   -1.1601   -2.3083 H         1 <0>         0.1451
     46 H3         -9.4682   -5.6674   -2.7060 H         1 <0>         0.1336
     47 H4         -9.7869   -1.3847   -3.0007 H         1 <0>         0.1567
     48 H5          3.5627   -2.8549    0.7003 H         1 <0>         0.0649
     49 H6          2.0259   -2.5829   -0.0837 H         1 <0>         0.0476
     50 H7          2.8567   -4.7427   -0.7790 H         1 <0>         0.0641
     51 H8          3.1032   -5.2618    0.8729 H         1 <0>         0.0484
     52 H9          2.1569   -0.7868    1.7257 H         1 <0>         0.0596
     53 H10         1.5124   -1.2395    3.3116 H         1 <0>         0.0757
     54 H11         1.0921   -5.7802    2.3299 H         1 <0>         0.0782
     55 H12        -0.5175   -5.5090    1.7393 H         1 <0>         0.0812
     56 H13        -0.5378   -0.6778    2.3126 H         1 <0>         0.0731
     57 H14         2.6304   -3.2407    2.8169 H         1 <0>         0.0511
     58 H15         0.4523   -3.8218    3.4319 H         1 <0>         0.0753
     59 H16         0.3841   -4.5700   -0.3844 H         1 <0>         0.0427
     60 H17        -6.0375    0.3284    3.1563 H         1 <0>         0.0450
     61 H18        -5.8542   -1.3328    3.7128 H         1 <0>         0.0406
     62 H19        -5.2988   -0.8789    2.0908 H         1 <0>         0.0274
     63 H20        -3.3028    0.8425    1.9049 H         1 <0>         0.0476
     64 H21        -4.1178    1.8926    3.0773 H         1 <0>         0.0170
     65 H22        -2.4708    1.3315    3.3922 H         1 <0>         0.0477
     66 H23        -5.2527   -2.2721   -2.1860 H         1 <0>         0.0814
     67 H24        -5.1328   -4.0165   -2.0862 H         1 <0>         0.0685
     68 H25         1.0953    2.7243   -3.2569 H         1 <0>         0.1016
     69 H26        -0.6566    2.5474   -3.2629 H         1 <0>         0.0660
     70 H27        -0.6751    2.4928   -0.7614 H         1 <0>         0.0512
     71 H28         1.0606    2.7304   -0.7258 H         1 <0>         0.0454
     72 H29        -2.0302   -1.0518    4.0061 H         1 <0>         0.0575
     73 H30        -3.3514   -2.1846    4.2177 H         1 <0>         0.0743
     74 H31         0.8899    4.8778   -2.0056 H         1 <0>         0.0662
     75 H32        -0.8713    4.7077   -1.9937 H         1 <0>         0.0622
     76 H33         1.7614    0.6251   -3.0928 H         1 <0>         0.0321
     77 H34         1.8289   -0.7905   -2.0281 H         1 <0>         0.0204
     78 H35        -2.3647   -1.1082    1.5019 H         1 <0>         0.0749
     79 H36        -6.3286   -2.4083    0.2569 H         1 <0>         0.0719
     80 H37        -4.1195    0.0762    4.7551 H         1 <0>         0.0609
     81 H38        -0.3978    0.3245   -1.8868 H         1 <0>         0.1063
     82 H39        -0.1784    6.4130   -6.1648 H         1 <0>         0.4792
     83 H40        -0.3675    7.9927   -5.4705 H         1 <0>         0.4819
     84 H41        -0.2564    6.9316   -2.0034 H         1 <0>         0.4802
     85 H42        -0.4140    8.2980   -3.0692 H         1 <0>         0.4826
     86 H43         0.8216    0.7626    0.7549 H         1 <0>         0.3101
     87 H44        -4.7231   -2.7191    2.1790 H         1 <0>         0.3087
     88 H45         0.0398    4.4889   -4.7055 H         1 <0>         0.4846
     89 H46       -11.4843   -4.4380   -2.8573 H         1 <0>         0.4194
     90 H47         1.8515   -6.8926    0.0654 H         1 <0>         0.4036
     91 H48         2.9636    1.7601   -1.6856 H         1 <0>         0.4114
     92 H49        -6.0303   -4.9121   -0.2823 H         1 <0>         0.3944
@<TRIPOS>BOND
     1    1    3 ar
     2    1    5 ar
     3    2    4 ar
     4    2    5 ar
     5    3    6 ar
     6    4    6 ar
     7    5   21 1
     8    6   40 1
     9    7   15 1
    10    7   34 am
    11    7   37 2
    12    8   27 1
    13    8   31 am
    14    8   38 2
    15    9   28 1
    16    9   35 am
    17    9   39 2
    18   10   32 1
    19   10   33 1
    20   10   36 1
    21   11   12 1
    22   11   16 1
    23   12   18 1
    24   13   15 1
    25   13   16 1
    26   14   17 1
    27   14   18 1
    28   15   31 1
    29   16   17 1
    30   17   31 1
    31   18   41 1
    32   19   29 1
    33   20   29 1
    34   21   28 1
    35   22   23 1
    36   22   25 1
    37   23   30 1
    38   24   27 1
    39   24   29 1
    40   25   36 1
    41   26   30 1
    42   26   42 1
    43   27   35 1
    44   28   43 1
    45   30   34 1
    46    1   44 1
    47    2   45 1
    48    3   46 1
    49    4   47 1
    50   11   48 1
    51   11   49 1
    52   12   50 1
    53   12   51 1
    54   13   52 1
    55   13   53 1
    56   14   54 1
    57   14   55 1
    58   15   56 1
    59   16   57 1
    60   17   58 1
    61   18   59 1
    62   19   60 1
    63   19   61 1
    64   19   62 1
    65   20   63 1
    66   20   64 1
    67   20   65 1
    68   21   66 1
    69   21   67 1
    70   22   68 1
    71   22   69 1
    72   23   70 1
    73   23   71 1
    74   24   72 1
    75   24   73 1
    76   25   74 1
    77   25   75 1
    78   26   76 1
    79   26   77 1
    80   27   78 1
    81   28   79 1
    82   29   80 1
    83   30   81 1
    84   32   82 1
    85   32   83 1
    86   33   84 1
    87   33   85 1
    88   34   86 1
    89   35   87 1
    90   36   88 1
    91   40   89 1
    92   41   90 1
    93   42   91 1
    94   43   92 1
@<TRIPOS>MOLECULE
1a2c_ligand_39
   92    94     0     0     0
SMALL
USER_CHARGES

mmff94s_NoEstat = 107.19
@<TRIPOS>ATOM
      1 C1         -8.1123   -5.1215    0.2464 C.ar      1 <0>        -0.0708
      2 C2         -6.5169   -6.0095   -1.3358 C.ar      1 <0>        -0.0872
      3 C3         -9.1310   -5.8431   -0.3759 C.ar      1 <0>        -0.2241
      4 C4         -7.5356   -6.7311   -1.9580 C.ar      1 <0>        -0.1600
      5 C5         -6.8190   -5.2144   -0.2419 C.ar      1 <0>        -0.1356
      6 C6         -8.8427   -6.6480   -1.4781 C.ar      1 <0>         0.1290
      7 C7         -0.0512   -1.0561    0.2993 C.2       1 <0>         0.6664
      8 C8         -1.8469   -3.0457    2.1630 C.2       1 <0>         0.6651
      9 C9         -4.1811   -2.4610    0.1870 C.2       1 <0>         0.6454
     10 C10        -3.3294    2.0808   -3.5565 C.cat     1 <0>         0.6349
     11 C11         2.5186   -3.1911    0.6823 C.3       1 <0>        -0.0642
     12 C12         2.4580   -4.6414    0.2376 C.3       1 <0>        -0.0747
     13 C13         1.4874   -1.4827    2.2418 C.3       1 <0>        -0.0873
     14 C14         0.4946   -5.0934    1.7133 C.3       1 <0>        -0.1371
     15 C15         0.0412   -1.4176    1.7503 C.3       1 <0>         0.0360
     16 C16         1.8865   -2.9529    2.0632 C.3       1 <0>        -0.0720
     17 C17         0.5665   -3.7001    2.3454 C.3       1 <0>         0.1201
     18 C18         1.0248   -5.1525    0.2868 C.3       1 <0>         0.1453
     19 C19        -5.3726   -0.5418    3.1302 C.3       1 <0>        -0.0968
     20 C20        -3.4397    1.0389    2.9738 C.3       1 <0>        -0.0986
     21 C21        -5.7160   -4.4337    0.4322 C.3       1 <0>        -0.0191
     22 C22        -1.0374    2.7415   -0.6235 C.3       1 <0>        -0.1009
     23 C23         0.2513    2.2726   -1.3090 C.3       1 <0>        -0.0942
     24 C24        -2.9973   -1.3585    3.5851 C.3       1 <0>        -0.0988
     25 C25        -2.2684    2.1304   -1.2894 C.3       1 <0>         0.1966
     26 C26         1.7383    0.3016   -2.0469 C.3       1 <0>         0.1128
     27 C27        -2.7865   -1.8644    2.1628 C.3       1 <0>         0.0786
     28 C28        -5.5432   -3.0384   -0.1771 C.3       1 <0>         0.0744
     29 C29        -3.9969   -0.1898    3.6979 C.3       1 <0>        -0.0678
     30 C30         0.4555    0.7445   -1.3388 C.3       1 <0>         0.1065
     31 N1         -0.4979   -2.7598    1.9615 N.am      1 <0>        -0.4315
     32 N2         -3.3390    2.4766   -4.8899 N.pl3     1 <0>        -0.8671
     33 N3         -4.3382    1.2447   -3.0902 N.pl3     1 <0>        -0.8581
     34 N4          0.4455    0.1980   -0.0008 N.am      1 <0>        -0.5687
     35 N5         -3.9799   -2.3853    1.5634 N.am      1 <0>        -0.5746
     36 N6         -2.3186    2.5130   -2.6805 N.pl3     1 <0>        -0.7533
     37 O1         -0.5362   -1.8555   -0.4928 O.2       1 <0>        -0.5843
     38 O2         -2.2998   -4.1783    2.3409 O.2       1 <0>        -0.6812
     39 O3         -3.3708   -2.0954   -0.6616 O.2       1 <0>        -0.5788
     40 O4         -9.8364   -7.3534   -2.0842 O.3       1 <0>        -0.4938
     41 O5          0.9879   -6.5072   -0.1510 O.3       1 <0>        -0.6030
     42 O6          2.8703    0.8436   -1.3793 O.3       1 <0>        -0.5860
     43 O7         -6.5451   -2.1786    0.3468 O.3       1 <0>        -0.6021
     44 H1         -8.3466   -4.4971    1.1042 H         1 <0>         0.1412
     45 H2         -5.5013   -6.0806   -1.7164 H         1 <0>         0.1451
     46 H3        -10.1470   -5.7743    0.0027 H         1 <0>         0.1336
     47 H4         -7.3045   -7.3572   -2.8158 H         1 <0>         0.1567
     48 H5          3.5627   -2.8549    0.7003 H         1 <0>         0.0649
     49 H6          2.0259   -2.5829   -0.0837 H         1 <0>         0.0476
     50 H7          2.8567   -4.7427   -0.7790 H         1 <0>         0.0641
     51 H8          3.1032   -5.2618    0.8729 H         1 <0>         0.0484
     52 H9          2.1569   -0.7868    1.7257 H         1 <0>         0.0596
     53 H10         1.5124   -1.2395    3.3116 H         1 <0>         0.0757
     54 H11         1.0921   -5.7802    2.3299 H         1 <0>         0.0782
     55 H12        -0.5175   -5.5090    1.7393 H         1 <0>         0.0812
     56 H13        -0.5378   -0.6778    2.3126 H         1 <0>         0.0731
     57 H14         2.6304   -3.2407    2.8169 H         1 <0>         0.0511
     58 H15         0.4523   -3.8218    3.4319 H         1 <0>         0.0753
     59 H16         0.3841   -4.5700   -0.3844 H         1 <0>         0.0427
     60 H17        -6.0375    0.3284    3.1563 H         1 <0>         0.0450
     61 H18        -5.8542   -1.3328    3.7128 H         1 <0>         0.0406
     62 H19        -5.2988   -0.8789    2.0908 H         1 <0>         0.0274
     63 H20        -3.3028    0.8425    1.9049 H         1 <0>         0.0476
     64 H21        -4.1178    1.8926    3.0773 H         1 <0>         0.0170
     65 H22        -2.4708    1.3315    3.3922 H         1 <0>         0.0477
     66 H23        -4.7767   -4.9973    0.3545 H         1 <0>         0.0814
     67 H24        -5.9411   -4.3740    1.5044 H         1 <0>         0.0685
     68 H25        -1.0263    2.4588    0.4356 H         1 <0>         0.1016
     69 H26        -1.1105    3.8350   -0.6596 H         1 <0>         0.0660
     70 H27         1.1110    2.7323   -0.8028 H         1 <0>         0.0512
     71 H28         0.2685    2.6560   -2.3373 H         1 <0>         0.0454
     72 H29        -2.0302   -1.0518    4.0061 H         1 <0>         0.0575
     73 H30        -3.3514   -2.1846    4.2177 H         1 <0>         0.0743
     74 H31        -3.1804    2.4738   -0.7898 H         1 <0>         0.0662
     75 H32        -2.2399    1.0381   -1.2201 H         1 <0>         0.0622
     76 H33         1.7614    0.6251   -3.0928 H         1 <0>         0.0321
     77 H34         1.8289   -0.7905   -2.0281 H         1 <0>         0.0204
     78 H35        -2.3647   -1.1082    1.5019 H         1 <0>         0.0749
     79 H36        -5.6447   -3.0594   -1.2687 H         1 <0>         0.0719
     80 H37        -4.1195    0.0762    4.7551 H         1 <0>         0.0609
     81 H38        -0.3978    0.3245   -1.8868 H         1 <0>         0.1063
     82 H39        -2.6237    3.0881   -5.2742 H         1 <0>         0.4792
     83 H40        -4.0716    2.1635   -5.5226 H         1 <0>         0.4819
     84 H41        -4.3615    0.9362   -2.1213 H         1 <0>         0.4802
     85 H42        -5.0788    0.9188   -3.7066 H         1 <0>         0.4826
     86 H43         0.8216    0.7626    0.7549 H         1 <0>         0.3101
     87 H44        -4.7231   -2.7191    2.1790 H         1 <0>         0.3087
     88 H45        -1.5986    3.1289   -3.0773 H         1 <0>         0.4846
     89 H46       -10.6756   -6.8692   -2.0272 H         1 <0>         0.4194
     90 H47         1.8515   -6.8926    0.0654 H         1 <0>         0.4036
     91 H48         2.9636    1.7601   -1.6856 H         1 <0>         0.4114
     92 H49        -7.2229   -2.7477    0.7466 H         1 <0>         0.3944
@<TRIPOS>BOND
     1    1    3 ar
     2    1    5 ar
     3    2    4 ar
     4    2    5 ar
     5    3    6 ar
     6    4    6 ar
     7    5   21 1
     8    6   40 1
     9    7   15 1
    10    7   34 am
    11    7   37 2
    12    8   27 1
    13    8   31 am
    14    8   38 2
    15    9   28 1
    16    9   35 am
    17    9   39 2
    18   10   32 1
    19   10   33 1
    20   10   36 1
    21   11   12 1
    22   11   16 1
    23   12   18 1
    24   13   15 1
    25   13   16 1
    26   14   17 1
    27   14   18 1
    28   15   31 1
    29   16   17 1
    30   17   31 1
    31   18   41 1
    32   19   29 1
    33   20   29 1
    34   21   28 1
    35   22   23 1
    36   22   25 1
    37   23   30 1
    38   24   27 1
    39   24   29 1
    40   25   36 1
    41   26   30 1
    42   26   42 1
    43   27   35 1
    44   28   43 1
    45   30   34 1
    46    1   44 1
    47    2   45 1
    48    3   46 1
    49    4   47 1
    50   11   48 1
    51   11   49 1
    52   12   50 1
    53   12   51 1
    54   13   52 1
    55   13   53 1
    56   14   54 1
    57   14   55 1
    58   15   56 1
    59   16   57 1
    60   17   58 1
    61   18   59 1
    62   19   60 1
    63   19   61 1
    64   19   62 1
    65   20   63 1
    66   20   64 1
    67   20   65 1
    68   21   66 1
    69   21   67 1
    70   22   68 1
    71   22   69 1
    72   23   70 1
    73   23   71 1
    74   24   72 1
    75   24   73 1
    76   25   74 1
    77   25   75 1
    78   26   76 1
    79   26   77 1
    80   27   78 1
    81   28   79 1
    82   29   80 1
    83   30   81 1
    84   32   82 1
    85   32   83 1
    86   33   84 1
    87   33   85 1
    88   34   86 1
    89   35   87 1
    90   36   88 1
    91   40   89 1
    92   41   90 1
    93   42   91 1
    94   43   92 1
@<TRIPOS>MOLECULE
1a2c_ligand_40
   92    94     0     0     0
SMALL
USER_CHARGES

mmff94s_NoEstat = 107.30
@<TRIPOS>ATOM
      1 C1         -8.3114   -3.2179   -2.0274 C.ar      1 <0>        -0.0708
      2 C2         -8.6344   -1.7905   -0.1051 C.ar      1 <0>        -0.0872
      3 C3         -9.6760   -3.5066   -2.0423 C.ar      1 <0>        -0.2241
      4 C4         -9.9990   -2.0792   -0.1200 C.ar      1 <0>        -0.1600
      5 C5         -7.8089   -2.3638   -1.0591 C.ar      1 <0>        -0.1356
      6 C6        -10.5198   -2.9372   -1.0886 C.ar      1 <0>         0.1290
      7 C7         -0.0512   -1.0561    0.2993 C.2       1 <0>         0.6664
      8 C8         -1.8469   -3.0457    2.1630 C.2       1 <0>         0.6651
      9 C9         -4.1811   -2.4610    0.1870 C.2       1 <0>         0.6454
     10 C10         4.3140   -0.8640   -5.2229 C.cat     1 <0>         0.6349
     11 C11         2.5186   -3.1911    0.6823 C.3       1 <0>        -0.0642
     12 C12         2.4580   -4.6414    0.2376 C.3       1 <0>        -0.0747
     13 C13         1.4874   -1.4827    2.2418 C.3       1 <0>        -0.0873
     14 C14         0.4946   -5.0934    1.7133 C.3       1 <0>        -0.1371
     15 C15         0.0412   -1.4176    1.7503 C.3       1 <0>         0.0360
     16 C16         1.8865   -2.9529    2.0632 C.3       1 <0>        -0.0720
     17 C17         0.5665   -3.7001    2.3454 C.3       1 <0>         0.1201
     18 C18         1.0248   -5.1525    0.2868 C.3       1 <0>         0.1453
     19 C19        -5.3726   -0.5418    3.1302 C.3       1 <0>        -0.0968
     20 C20        -3.4397    1.0389    2.9738 C.3       1 <0>        -0.0986
     21 C21        -6.3317   -2.0507   -1.0434 C.3       1 <0>        -0.0191
     22 C22         2.8091   -0.2380   -1.8118 C.3       1 <0>        -0.1009
     23 C23         1.3524   -0.0970   -2.2688 C.3       1 <0>        -0.0942
     24 C24        -2.9973   -1.3585    3.5851 C.3       1 <0>        -0.0988
     25 C25         3.6273   -1.0396   -2.8217 C.3       1 <0>         0.1966
     26 C26        -0.9878    0.8875   -1.8280 C.3       1 <0>         0.1128
     27 C27        -2.7865   -1.8644    2.1628 C.3       1 <0>         0.0786
     28 C28        -5.5432   -3.0384   -0.1771 C.3       1 <0>         0.0744
     29 C29        -3.9969   -0.1898    3.6979 C.3       1 <0>        -0.0678
     30 C30         0.4555    0.7445   -1.3388 C.3       1 <0>         0.1065
     31 N1         -0.4979   -2.7598    1.9615 N.am      1 <0>        -0.4315
     32 N2          4.2803   -0.1880   -6.4381 N.pl3     1 <0>        -0.8671
     33 N3          5.0441   -2.0434   -5.1232 N.pl3     1 <0>        -0.8581
     34 N4          0.4455    0.1980   -0.0008 N.am      1 <0>        -0.5687
     35 N5         -3.9799   -2.3853    1.5634 N.am      1 <0>        -0.5746
     36 N6          3.6234   -0.3721   -4.1018 N.pl3     1 <0>        -0.7533
     37 O1         -0.5362   -1.8555   -0.4928 O.2       1 <0>        -0.5843
     38 O2         -2.2998   -4.1783    2.3409 O.2       1 <0>        -0.6812
     39 O3         -3.3708   -2.0954   -0.6616 O.2       1 <0>        -0.5788
     40 O4        -11.8516   -3.2177   -1.1041 O.3       1 <0>        -0.4938
     41 O5          0.9879   -6.5072   -0.1510 O.3       1 <0>        -0.6030
     42 O6         -1.7287    1.6906   -0.9186 O.3       1 <0>        -0.5860
     43 O7         -5.3363   -4.2353   -0.9135 O.3       1 <0>        -0.6021
     44 H1         -7.6620   -3.6664   -2.7743 H         1 <0>         0.1412
     45 H2         -8.2374   -1.1206    0.6532 H         1 <0>         0.1451
     46 H3        -10.0757   -4.1756   -2.7993 H         1 <0>         0.1336
     47 H4        -10.6514   -1.6318    0.6252 H         1 <0>         0.1567
     48 H5          3.5627   -2.8549    0.7003 H         1 <0>         0.0649
     49 H6          2.0259   -2.5829   -0.0837 H         1 <0>         0.0476
     50 H7          2.8567   -4.7427   -0.7790 H         1 <0>         0.0641
     51 H8          3.1032   -5.2618    0.8729 H         1 <0>         0.0484
     52 H9          2.1569   -0.7868    1.7257 H         1 <0>         0.0596
     53 H10         1.5124   -1.2395    3.3116 H         1 <0>         0.0757
     54 H11         1.0921   -5.7802    2.3299 H         1 <0>         0.0782
     55 H12        -0.5175   -5.5090    1.7393 H         1 <0>         0.0812
     56 H13        -0.5378   -0.6778    2.3126 H         1 <0>         0.0731
     57 H14         2.6304   -3.2407    2.8169 H         1 <0>         0.0511
     58 H15         0.4523   -3.8218    3.4319 H         1 <0>         0.0753
     59 H16         0.3841   -4.5700   -0.3844 H         1 <0>         0.0427
     60 H17        -6.0375    0.3284    3.1563 H         1 <0>         0.0450
     61 H18        -5.8542   -1.3328    3.7128 H         1 <0>         0.0406
     62 H19        -5.2988   -0.8789    2.0908 H         1 <0>         0.0274
     63 H20        -3.3028    0.8425    1.9049 H         1 <0>         0.0476
     64 H21        -4.1178    1.8926    3.0773 H         1 <0>         0.0170
     65 H22        -2.4708    1.3315    3.3922 H         1 <0>         0.0477
     66 H23        -6.1847   -1.0265   -0.6753 H         1 <0>         0.0814
     67 H24        -5.9678   -2.0516   -2.0786 H         1 <0>         0.0685
     68 H25         3.2637    0.7519   -1.6883 H         1 <0>         0.1016
     69 H26         2.8542   -0.7324   -0.8340 H         1 <0>         0.0660
     70 H27         0.9126   -1.0986   -2.3693 H         1 <0>         0.0512
     71 H28         1.3348    0.3408   -3.2751 H         1 <0>         0.0454
     72 H29        -2.0302   -1.0518    4.0061 H         1 <0>         0.0575
     73 H30        -3.3514   -2.1846    4.2177 H         1 <0>         0.0743
     74 H31         3.2070   -2.0439   -2.9397 H         1 <0>         0.0662
     75 H32         4.6614   -1.1478   -2.4785 H         1 <0>         0.0622
     76 H33        -1.4861   -0.0829   -1.9233 H         1 <0>         0.0321
     77 H34        -1.0136    1.3790   -2.8073 H         1 <0>         0.0204
     78 H35        -2.3647   -1.1082    1.5019 H         1 <0>         0.0749
     79 H36        -6.0846   -3.2900    0.7426 H         1 <0>         0.0719
     80 H37        -4.1195    0.0762    4.7551 H         1 <0>         0.0609
     81 H38         0.9010    1.7469   -1.2960 H         1 <0>         0.1063
     82 H39         3.7586    0.6761   -6.5582 H         1 <0>         0.4792
     83 H40         4.7802   -0.5455   -7.2489 H         1 <0>         0.4819
     84 H41         5.0901   -2.5628   -4.2499 H         1 <0>         0.4802
     85 H42         5.5525   -2.4170   -5.9211 H         1 <0>         0.4826
     86 H43         0.8216    0.7626    0.7549 H         1 <0>         0.3101
     87 H44        -4.7231   -2.7191    2.1790 H         1 <0>         0.3087
     88 H45         3.1004    0.5025   -4.2311 H         1 <0>         0.4846
     89 H46       -12.0014   -4.1211   -1.4255 H         1 <0>         0.4194
     90 H47         1.8515   -6.8926    0.0654 H         1 <0>         0.4036
     91 H48        -1.9874    1.1133   -0.1822 H         1 <0>         0.4114
     92 H49        -5.9568   -4.2165   -1.6604 H         1 <0>         0.3944
@<TRIPOS>BOND
     1    1    3 ar
     2    1    5 ar
     3    2    4 ar
     4    2    5 ar
     5    3    6 ar
     6    4    6 ar
     7    5   21 1
     8    6   40 1
     9    7   15 1
    10    7   34 am
    11    7   37 2
    12    8   27 1
    13    8   31 am
    14    8   38 2
    15    9   28 1
    16    9   35 am
    17    9   39 2
    18   10   32 1
    19   10   33 1
    20   10   36 1
    21   11   12 1
    22   11   16 1
    23   12   18 1
    24   13   15 1
    25   13   16 1
    26   14   17 1
    27   14   18 1
    28   15   31 1
    29   16   17 1
    30   17   31 1
    31   18   41 1
    32   19   29 1
    33   20   29 1
    34   21   28 1
    35   22   23 1
    36   22   25 1
    37   23   30 1
    38   24   27 1
    39   24   29 1
    40   25   36 1
    41   26   30 1
    42   26   42 1
    43   27   35 1
    44   28   43 1
    45   30   34 1
    46    1   44 1
    47    2   45 1
    48    3   46 1
    49    4   47 1
    50   11   48 1
    51   11   49 1
    52   12   50 1
    53   12   51 1
    54   13   52 1
    55   13   53 1
    56   14   54 1
    57   14   55 1
    58   15   56 1
    59   16   57 1
    60   17   58 1
    61   18   59 1
    62   19   60 1
    63   19   61 1
    64   19   62 1
    65   20   63 1
    66   20   64 1
    67   20   65 1
    68   21   66 1
    69   21   67 1
    70   22   68 1
    71   22   69 1
    72   23   70 1
    73   23   71 1
    74   24   72 1
    75   24   73 1
    76   25   74 1
    77   25   75 1
    78   26   76 1
    79   26   77 1
    80   27   78 1
    81   28   79 1
    82   29   80 1
    83   30   81 1
    84   32   82 1
    85   32   83 1
    86   33   84 1
    87   33   85 1
    88   34   86 1
    89   35   87 1
    90   36   88 1
    91   40   89 1
    92   41   90 1
    93   42   91 1
    94   43   92 1
@<TRIPOS>MOLECULE
1a2c_ligand_41
   92    94     0     0     0
SMALL
USER_CHARGES

mmff94s_NoEstat = 107.32
@<TRIPOS>ATOM
      1 C1         -8.6891   -1.0874    0.2432 C.ar      1 <0>        -0.0708
      2 C2         -6.8597    0.4829    0.0867 C.ar      1 <0>        -0.0872
      3 C3         -9.4297   -0.1524    0.9664 C.ar      1 <0>        -0.2241
      4 C4         -7.6003    1.4179    0.8099 C.ar      1 <0>        -0.1600
      5 C5         -7.4141   -0.7571   -0.1870 C.ar      1 <0>        -0.1356
      6 C6         -8.8853    1.1002    1.2498 C.ar      1 <0>         0.1290
      7 C7         -0.0512   -1.0561    0.2993 C.2       1 <0>         0.6664
      8 C8         -1.8469   -3.0457    2.1630 C.2       1 <0>         0.6651
      9 C9         -4.4743   -1.9575    0.3333 C.2       1 <0>         0.6454
     10 C10        -2.6672    5.4277   -0.3386 C.cat     1 <0>         0.6349
     11 C11         2.5186   -3.1911    0.6823 C.3       1 <0>        -0.0642
     12 C12         2.4580   -4.6414    0.2376 C.3       1 <0>        -0.0747
     13 C13         1.4874   -1.4827    2.2418 C.3       1 <0>        -0.0873
     14 C14         0.4946   -5.0934    1.7133 C.3       1 <0>        -0.1371
     15 C15         0.0412   -1.4176    1.7503 C.3       1 <0>         0.0360
     16 C16         1.8865   -2.9529    2.0632 C.3       1 <0>        -0.0720
     17 C17         0.5665   -3.7001    2.3454 C.3       1 <0>         0.1201
     18 C18         1.0248   -5.1525    0.2868 C.3       1 <0>         0.1453
     19 C19        -5.3726   -0.5418    3.1302 C.3       1 <0>        -0.0968
     20 C20        -3.4397    1.0389    2.9738 C.3       1 <0>        -0.0986
     21 C21        -6.6126   -1.7691   -0.9705 C.3       1 <0>        -0.0191
     22 C22        -1.8968    1.7896   -1.0188 C.3       1 <0>        -0.1009
     23 C23        -0.4337    2.0012   -1.4250 C.3       1 <0>        -0.0942
     24 C24        -2.9973   -1.3585    3.5851 C.3       1 <0>        -0.0988
     25 C25        -2.7062    3.0733   -1.1890 C.3       1 <0>         0.1966
     26 C26         1.9058    0.9774   -1.7696 C.3       1 <0>         0.1128
     27 C27        -2.7865   -1.8644    2.1628 C.3       1 <0>         0.0786
     28 C28        -5.7663   -2.6636   -0.0588 C.3       1 <0>         0.0744
     29 C29        -3.9969   -0.1898    3.6979 C.3       1 <0>        -0.0678
     30 C30         0.4555    0.7445   -1.3388 C.3       1 <0>         0.1065
     31 N1         -0.4979   -2.7598    1.9615 N.am      1 <0>        -0.4315
     32 N2         -2.0958    6.4072    0.4670 N.pl3     1 <0>        -0.8671
     33 N3         -3.7703    5.7519   -1.1209 N.pl3     1 <0>        -0.8581
     34 N4          0.4455    0.1980   -0.0008 N.am      1 <0>        -0.5687
     35 N5         -3.9799   -2.3853    1.5634 N.am      1 <0>        -0.5746
     36 N6         -2.1460    4.1226   -0.3710 N.pl3     1 <0>        -0.7533
     37 O1         -0.5362   -1.8555   -0.4928 O.2       1 <0>        -0.5843
     38 O2         -2.2998   -4.1783    2.3409 O.2       1 <0>        -0.6812
     39 O3         -3.9527   -1.0962   -0.3713 O.2       1 <0>        -0.5788
     40 O4         -9.6087    2.0131    1.9541 O.3       1 <0>        -0.4938
     41 O5          0.9879   -6.5072   -0.1510 O.3       1 <0>        -0.6030
     42 O6          2.6391   -0.2366   -1.6731 O.3       1 <0>        -0.5860
     43 O7         -5.4285   -3.8509   -0.7614 O.3       1 <0>        -0.6021
     44 H1         -9.1215   -2.0606    0.0275 H         1 <0>         0.1412
     45 H2         -5.8593    0.7393   -0.2523 H         1 <0>         0.1451
     46 H3        -10.4301   -0.4058    1.3062 H         1 <0>         0.1336
     47 H4         -7.1710    2.3925    1.0267 H         1 <0>         0.1567
     48 H5          3.5627   -2.8549    0.7003 H         1 <0>         0.0649
     49 H6          2.0259   -2.5829   -0.0837 H         1 <0>         0.0476
     50 H7          2.8567   -4.7427   -0.7790 H         1 <0>         0.0641
     51 H8          3.1032   -5.2618    0.8729 H         1 <0>         0.0484
     52 H9          2.1569   -0.7868    1.7257 H         1 <0>         0.0596
     53 H10         1.5124   -1.2395    3.3116 H         1 <0>         0.0757
     54 H11         1.0921   -5.7802    2.3299 H         1 <0>         0.0782
     55 H12        -0.5175   -5.5090    1.7393 H         1 <0>         0.0812
     56 H13        -0.5378   -0.6778    2.3126 H         1 <0>         0.0731
     57 H14         2.6304   -3.2407    2.8169 H         1 <0>         0.0511
     58 H15         0.4523   -3.8218    3.4319 H         1 <0>         0.0753
     59 H16         0.3841   -4.5700   -0.3844 H         1 <0>         0.0427
     60 H17        -6.0375    0.3284    3.1563 H         1 <0>         0.0450
     61 H18        -5.8542   -1.3328    3.7128 H         1 <0>         0.0406
     62 H19        -5.2988   -0.8789    2.0908 H         1 <0>         0.0274
     63 H20        -3.3028    0.8425    1.9049 H         1 <0>         0.0476
     64 H21        -4.1178    1.8926    3.0773 H         1 <0>         0.0170
     65 H22        -2.4708    1.3315    3.3922 H         1 <0>         0.0477
     66 H23        -5.9666   -1.2415   -1.6850 H         1 <0>         0.0814
     67 H24        -7.3067   -2.3638   -1.5776 H         1 <0>         0.0685
     68 H25        -2.3478    0.9988   -1.6296 H         1 <0>         0.1016
     69 H26        -1.9571    1.4582    0.0248 H         1 <0>         0.0660
     70 H27         0.0021    2.7844   -0.7898 H         1 <0>         0.0512
     71 H28        -0.4008    2.3932   -2.4497 H         1 <0>         0.0454
     72 H29        -2.0302   -1.0518    4.0061 H         1 <0>         0.0575
     73 H30        -3.3514   -2.1846    4.2177 H         1 <0>         0.0743
     74 H31        -3.7481    2.9073   -0.8955 H         1 <0>         0.0662
     75 H32        -2.7006    3.3948   -2.2356 H         1 <0>         0.0622
     76 H33         2.4001    1.7344   -1.1517 H         1 <0>         0.0321
     77 H34         1.9468    1.3120   -2.8125 H         1 <0>         0.0204
     78 H35        -2.3647   -1.1082    1.5019 H         1 <0>         0.0749
     79 H36        -6.3120   -2.9453    0.8496 H         1 <0>         0.0719
     80 H37        -4.1195    0.0762    4.7551 H         1 <0>         0.0609
     81 H38         0.0149    0.0012   -2.0158 H         1 <0>         0.1063
     82 H39        -1.2903    6.2156    1.0567 H         1 <0>         0.4792
     83 H40        -2.4745    7.3512    0.4899 H         1 <0>         0.4819
     84 H41        -4.2125    5.0601   -1.7212 H         1 <0>         0.4802
     85 H42        -4.1632    6.6901   -1.1140 H         1 <0>         0.4826
     86 H43         0.8216    0.7626    0.7549 H         1 <0>         0.3101
     87 H44        -4.4957   -3.1095    2.0656 H         1 <0>         0.3087
     88 H45        -1.3309    3.9380    0.2262 H         1 <0>         0.4846
     89 H46       -10.1852    1.5647    2.5931 H         1 <0>         0.4194
     90 H47         1.8515   -6.8926    0.0654 H         1 <0>         0.4036
     91 H48         2.8853   -0.3414   -0.7399 H         1 <0>         0.4114
     92 H49        -6.0237   -3.9035   -1.5269 H         1 <0>         0.3944
@<TRIPOS>BOND
     1    1    3 ar
     2    1    5 ar
     3    2    4 ar
     4    2    5 ar
     5    3    6 ar
     6    4    6 ar
     7    5   21 1
     8    6   40 1
     9    7   15 1
    10    7   34 am
    11    7   37 2
    12    8   27 1
    13    8   31 am
    14    8   38 2
    15    9   28 1
    16    9   35 am
    17    9   39 2
    18   10   32 1
    19   10   33 1
    20   10   36 1
    21   11   12 1
    22   11   16 1
    23   12   18 1
    24   13   15 1
    25   13   16 1
    26   14   17 1
    27   14   18 1
    28   15   31 1
    29   16   17 1
    30   17   31 1
    31   18   41 1
    32   19   29 1
    33   20   29 1
    34   21   28 1
    35   22   23 1
    36   22   25 1
    37   23   30 1
    38   24   27 1
    39   24   29 1
    40   25   36 1
    41   26   30 1
    42   26   42 1
    43   27   35 1
    44   28   43 1
    45   30   34 1
    46    1   44 1
    47    2   45 1
    48    3   46 1
    49    4   47 1
    50   11   48 1
    51   11   49 1
    52   12   50 1
    53   12   51 1
    54   13   52 1
    55   13   53 1
    56   14   54 1
    57   14   55 1
    58   15   56 1
    59   16   57 1
    60   17   58 1
    61   18   59 1
    62   19   60 1
    63   19   61 1
    64   19   62 1
    65   20   63 1
    66   20   64 1
    67   20   65 1
    68   21   66 1
    69   21   67 1
    70   22   68 1
    71   22   69 1
    72   23   70 1
    73   23   71 1
    74   24   72 1
    75   24   73 1
    76   25   74 1
    77   25   75 1
    78   26   76 1
    79   26   77 1
    80   27   78 1
    81   28   79 1
    82   29   80 1
    83   30   81 1
    84   32   82 1
    85   32   83 1
    86   33   84 1
    87   33   85 1
    88   34   86 1
    89   35   87 1
    90   36   88 1
    91   40   89 1
    92   41   90 1
    93   42   91 1
    94   43   92 1
@<TRIPOS>MOLECULE
1a2c_ligand_42
   92    94     0     0     0
SMALL
USER_CHARGES

mmff94s_NoEstat = 107.32
@<TRIPOS>ATOM
      1 C1         -8.1123   -5.1215    0.2464 C.ar      1 <0>        -0.0708
      2 C2         -6.5169   -6.0095   -1.3358 C.ar      1 <0>        -0.0872
      3 C3         -9.1310   -5.8431   -0.3759 C.ar      1 <0>        -0.2241
      4 C4         -7.5356   -6.7311   -1.9580 C.ar      1 <0>        -0.1600
      5 C5         -6.8190   -5.2144   -0.2419 C.ar      1 <0>        -0.1356
      6 C6         -8.8427   -6.6480   -1.4781 C.ar      1 <0>         0.1290
      7 C7         -0.0512   -1.0561    0.2993 C.2       1 <0>         0.6664
      8 C8         -1.8469   -3.0457    2.1630 C.2       1 <0>         0.6651
      9 C9         -4.1811   -2.4610    0.1870 C.2       1 <0>         0.6454
     10 C10         5.9740   -1.8739   -3.0762 C.cat     1 <0>         0.6349
     11 C11         2.5186   -3.1911    0.6823 C.3       1 <0>        -0.0642
     12 C12         2.4580   -4.6414    0.2376 C.3       1 <0>        -0.0747
     13 C13         1.4874   -1.4827    2.2418 C.3       1 <0>        -0.0873
     14 C14         0.4946   -5.0934    1.7133 C.3       1 <0>        -0.1371
     15 C15         0.0412   -1.4176    1.7503 C.3       1 <0>         0.0360
     16 C16         1.8865   -2.9529    2.0632 C.3       1 <0>        -0.0720
     17 C17         0.5665   -3.7001    2.3454 C.3       1 <0>         0.1201
     18 C18         1.0248   -5.1525    0.2868 C.3       1 <0>         0.1453
     19 C19        -5.3726   -0.5418    3.1302 C.3       1 <0>        -0.0968
     20 C20        -3.4397    1.0389    2.9738 C.3       1 <0>        -0.0986
     21 C21        -5.7160   -4.4337    0.4322 C.3       1 <0>        -0.0191
     22 C22         2.8091   -0.2380   -1.8118 C.3       1 <0>        -0.1009
     23 C23         1.3524   -0.0970   -2.2688 C.3       1 <0>        -0.0942
     24 C24        -2.9973   -1.3585    3.5851 C.3       1 <0>        -0.0988
     25 C25         3.6273   -1.0396   -2.8217 C.3       1 <0>         0.1966
     26 C26        -0.9878    0.8875   -1.8280 C.3       1 <0>         0.1128
     27 C27        -2.7865   -1.8644    2.1628 C.3       1 <0>         0.0786
     28 C28        -5.5432   -3.0384   -0.1771 C.3       1 <0>         0.0744
     29 C29        -3.9969   -0.1898    3.6979 C.3       1 <0>        -0.0678
     30 C30         0.4555    0.7445   -1.3388 C.3       1 <0>         0.1065
     31 N1         -0.4979   -2.7598    1.9615 N.am      1 <0>        -0.4315
     32 N2          7.2767   -1.9679   -2.5976 N.pl3     1 <0>        -0.8671
     33 N3          5.6472   -2.4923   -4.2783 N.pl3     1 <0>        -0.8581
     34 N4          0.4455    0.1980   -0.0008 N.am      1 <0>        -0.5687
     35 N5         -3.9799   -2.3853    1.5634 N.am      1 <0>        -0.5746
     36 N6          4.9906   -1.1661   -2.3638 N.pl3     1 <0>        -0.7533
     37 O1         -0.5362   -1.8555   -0.4928 O.2       1 <0>        -0.5843
     38 O2         -2.2998   -4.1783    2.3409 O.2       1 <0>        -0.6812
     39 O3         -3.3708   -2.0954   -0.6616 O.2       1 <0>        -0.5788
     40 O4         -9.8364   -7.3534   -2.0842 O.3       1 <0>        -0.4938
     41 O5          0.9879   -6.5072   -0.1510 O.3       1 <0>        -0.6030
     42 O6         -1.7287    1.6906   -0.9186 O.3       1 <0>        -0.5860
     43 O7         -6.5451   -2.1786    0.3468 O.3       1 <0>        -0.6021
     44 H1         -8.3466   -4.4971    1.1042 H         1 <0>         0.1412
     45 H2         -5.5013   -6.0806   -1.7164 H         1 <0>         0.1451
     46 H3        -10.1470   -5.7743    0.0027 H         1 <0>         0.1336
     47 H4         -7.3045   -7.3572   -2.8158 H         1 <0>         0.1567
     48 H5          3.5627   -2.8549    0.7003 H         1 <0>         0.0649
     49 H6          2.0259   -2.5829   -0.0837 H         1 <0>         0.0476
     50 H7          2.8567   -4.7427   -0.7790 H         1 <0>         0.0641
     51 H8          3.1032   -5.2618    0.8729 H         1 <0>         0.0484
     52 H9          2.1569   -0.7868    1.7257 H         1 <0>         0.0596
     53 H10         1.5124   -1.2395    3.3116 H         1 <0>         0.0757
     54 H11         1.0921   -5.7802    2.3299 H         1 <0>         0.0782
     55 H12        -0.5175   -5.5090    1.7393 H         1 <0>         0.0812
     56 H13        -0.5378   -0.6778    2.3126 H         1 <0>         0.0731
     57 H14         2.6304   -3.2407    2.8169 H         1 <0>         0.0511
     58 H15         0.4523   -3.8218    3.4319 H         1 <0>         0.0753
     59 H16         0.3841   -4.5700   -0.3844 H         1 <0>         0.0427
     60 H17        -6.0375    0.3284    3.1563 H         1 <0>         0.0450
     61 H18        -5.8542   -1.3328    3.7128 H         1 <0>         0.0406
     62 H19        -5.2988   -0.8789    2.0908 H         1 <0>         0.0274
     63 H20        -3.3028    0.8425    1.9049 H         1 <0>         0.0476
     64 H21        -4.1178    1.8926    3.0773 H         1 <0>         0.0170
     65 H22        -2.4708    1.3315    3.3922 H         1 <0>         0.0477
     66 H23        -4.7767   -4.9973    0.3545 H         1 <0>         0.0814
     67 H24        -5.9411   -4.3740    1.5044 H         1 <0>         0.0685
     68 H25         3.2637    0.7519   -1.6883 H         1 <0>         0.1016
     69 H26         2.8542   -0.7324   -0.8340 H         1 <0>         0.0660
     70 H27         0.9126   -1.0986   -2.3693 H         1 <0>         0.0512
     71 H28         1.3348    0.3408   -3.2751 H         1 <0>         0.0454
     72 H29        -2.0302   -1.0518    4.0061 H         1 <0>         0.0575
     73 H30        -3.3514   -2.1846    4.2177 H         1 <0>         0.0743
     74 H31         3.6213   -0.5411   -3.7968 H         1 <0>         0.0662
     75 H32         3.2008   -2.0392   -2.9543 H         1 <0>         0.0622
     76 H33        -1.4861   -0.0829   -1.9233 H         1 <0>         0.0321
     77 H34        -1.0136    1.3790   -2.8073 H         1 <0>         0.0204
     78 H35        -2.3647   -1.1082    1.5019 H         1 <0>         0.0749
     79 H36        -5.6447   -3.0594   -1.2687 H         1 <0>         0.0719
     80 H37        -4.1195    0.0762    4.7551 H         1 <0>         0.0609
     81 H38         0.9010    1.7469   -1.2960 H         1 <0>         0.1063
     82 H39         7.5616   -1.5307   -1.7253 H         1 <0>         0.4792
     83 H40         7.9876   -2.4801   -3.1146 H         1 <0>         0.4819
     84 H41         4.7045   -2.4434   -4.6571 H         1 <0>         0.4802
     85 H42         6.3424   -3.0107   -4.8098 H         1 <0>         0.4826
     86 H43         0.8216    0.7626    0.7549 H         1 <0>         0.3101
     87 H44        -4.7231   -2.7191    2.1790 H         1 <0>         0.3087
     88 H45         5.2862   -0.7291   -1.4825 H         1 <0>         0.4846
     89 H46       -10.6756   -6.8692   -2.0272 H         1 <0>         0.4194
     90 H47         1.8515   -6.8926    0.0654 H         1 <0>         0.4036
     91 H48        -1.9874    1.1133   -0.1822 H         1 <0>         0.4114
     92 H49        -7.2229   -2.7477    0.7466 H         1 <0>         0.3944
@<TRIPOS>BOND
     1    1    3 ar
     2    1    5 ar
     3    2    4 ar
     4    2    5 ar
     5    3    6 ar
     6    4    6 ar
     7    5   21 1
     8    6   40 1
     9    7   15 1
    10    7   34 am
    11    7   37 2
    12    8   27 1
    13    8   31 am
    14    8   38 2
    15    9   28 1
    16    9   35 am
    17    9   39 2
    18   10   32 1
    19   10   33 1
    20   10   36 1
    21   11   12 1
    22   11   16 1
    23   12   18 1
    24   13   15 1
    25   13   16 1
    26   14   17 1
    27   14   18 1
    28   15   31 1
    29   16   17 1
    30   17   31 1
    31   18   41 1
    32   19   29 1
    33   20   29 1
    34   21   28 1
    35   22   23 1
    36   22   25 1
    37   23   30 1
    38   24   27 1
    39   24   29 1
    40   25   36 1
    41   26   30 1
    42   26   42 1
    43   27   35 1
    44   28   43 1
    45   30   34 1
    46    1   44 1
    47    2   45 1
    48    3   46 1
    49    4   47 1
    50   11   48 1
    51   11   49 1
    52   12   50 1
    53   12   51 1
    54   13   52 1
    55   13   53 1
    56   14   54 1
    57   14   55 1
    58   15   56 1
    59   16   57 1
    60   17   58 1
    61   18   59 1
    62   19   60 1
    63   19   61 1
    64   19   62 1
    65   20   63 1
    66   20   64 1
    67   20   65 1
    68   21   66 1
    69   21   67 1
    70   22   68 1
    71   22   69 1
    72   23   70 1
    73   23   71 1
    74   24   72 1
    75   24   73 1
    76   25   74 1
    77   25   75 1
    78   26   76 1
    79   26   77 1
    80   27   78 1
    81   28   79 1
    82   29   80 1
    83   30   81 1
    84   32   82 1
    85   32   83 1
    86   33   84 1
    87   33   85 1
    88   34   86 1
    89   35   87 1
    90   36   88 1
    91   40   89 1
    92   41   90 1
    93   42   91 1
    94   43   92 1
@<TRIPOS>MOLECULE
1a2c_ligand_43
   92    94     0     0     0
SMALL
USER_CHARGES

mmff94s_NoEstat = 107.46
@<TRIPOS>ATOM
      1 C1         -7.9932   -1.0210   -1.1999 C.ar      1 <0>        -0.0708
      2 C2         -5.8259   -0.0100   -1.5432 C.ar      1 <0>        -0.0872
      3 C3         -8.5676    0.2459   -1.0959 C.ar      1 <0>        -0.2241
      4 C4         -6.4004    1.2568   -1.4392 C.ar      1 <0>        -0.1600
      5 C5         -6.6301   -1.1319   -1.4222 C.ar      1 <0>        -0.1356
      6 C6         -7.7712    1.3848   -1.2155 C.ar      1 <0>         0.1290
      7 C7         -0.0512   -1.0561    0.2993 C.2       1 <0>         0.6664
      8 C8         -1.8469   -3.0457    2.1630 C.2       1 <0>         0.6651
      9 C9         -4.1811   -2.4610    0.1870 C.2       1 <0>         0.6454
     10 C10        -0.9406    0.6782   -6.6110 C.cat     1 <0>         0.6349
     11 C11         2.5186   -3.1911    0.6823 C.3       1 <0>        -0.0642
     12 C12         2.4580   -4.6414    0.2376 C.3       1 <0>        -0.0747
     13 C13         1.4874   -1.4827    2.2418 C.3       1 <0>        -0.0873
     14 C14         0.4946   -5.0934    1.7133 C.3       1 <0>        -0.1371
     15 C15         0.0412   -1.4176    1.7503 C.3       1 <0>         0.0360
     16 C16         1.8865   -2.9529    2.0632 C.3       1 <0>        -0.0720
     17 C17         0.5665   -3.7001    2.3454 C.3       1 <0>         0.1201
     18 C18         1.0248   -5.1525    0.2868 C.3       1 <0>         0.1453
     19 C19        -5.3726   -0.5418    3.1302 C.3       1 <0>        -0.0968
     20 C20        -3.4397    1.0389    2.9738 C.3       1 <0>        -0.0986
     21 C21        -6.0083   -2.5034   -1.5355 C.3       1 <0>        -0.0191
     22 C22        -0.9951    2.0137   -3.0747 C.3       1 <0>        -0.1009
     23 C23        -0.8794    1.4488   -1.6540 C.3       1 <0>        -0.0942
     24 C24        -2.9973   -1.3585    3.5851 C.3       1 <0>        -0.0988
     25 C25        -0.9093    0.9015   -4.1176 C.3       1 <0>         0.1966
     26 C26         1.6856    1.6412   -1.5001 C.3       1 <0>         0.1128
     27 C27        -2.7865   -1.8644    2.1628 C.3       1 <0>         0.0786
     28 C28        -5.5432   -3.0384   -0.1771 C.3       1 <0>         0.0744
     29 C29        -3.9969   -0.1898    3.6979 C.3       1 <0>        -0.0678
     30 C30         0.4555    0.7445   -1.3388 C.3       1 <0>         0.1065
     31 N1         -0.4979   -2.7598    1.9615 N.am      1 <0>        -0.4315
     32 N2         -1.0455    1.2596   -7.8703 N.pl3     1 <0>        -0.8671
     33 N3         -0.7637   -0.6976   -6.5120 N.pl3     1 <0>        -0.8581
     34 N4          0.4455    0.1980   -0.0008 N.am      1 <0>        -0.5687
     35 N5         -3.9799   -2.3853    1.5634 N.am      1 <0>        -0.5746
     36 N6         -1.0107    1.4600   -5.4449 N.pl3     1 <0>        -0.7533
     37 O1         -0.5362   -1.8555   -0.4928 O.2       1 <0>        -0.5843
     38 O2         -2.2998   -4.1783    2.3409 O.2       1 <0>        -0.6812
     39 O3         -3.3708   -2.0954   -0.6616 O.2       1 <0>        -0.5788
     40 O4         -8.3321    2.6210   -1.1157 O.3       1 <0>        -0.4938
     41 O5          0.9879   -6.5072   -0.1510 O.3       1 <0>        -0.6030
     42 O6          1.5971    2.7470   -0.6113 O.3       1 <0>        -0.5860
     43 O7         -5.4208   -4.4514   -0.2549 O.3       1 <0>        -0.6021
     44 H1         -8.6216   -1.9023   -1.1052 H         1 <0>         0.1412
     45 H2         -4.7569   -0.1001   -1.7178 H         1 <0>         0.1451
     46 H3         -9.6360    0.3389   -0.9219 H         1 <0>         0.1336
     47 H4         -5.7747    2.1405   -1.5342 H         1 <0>         0.1567
     48 H5          3.5627   -2.8549    0.7003 H         1 <0>         0.0649
     49 H6          2.0259   -2.5829   -0.0837 H         1 <0>         0.0476
     50 H7          2.8567   -4.7427   -0.7790 H         1 <0>         0.0641
     51 H8          3.1032   -5.2618    0.8729 H         1 <0>         0.0484
     52 H9          2.1569   -0.7868    1.7257 H         1 <0>         0.0596
     53 H10         1.5124   -1.2395    3.3116 H         1 <0>         0.0757
     54 H11         1.0921   -5.7802    2.3299 H         1 <0>         0.0782
     55 H12        -0.5175   -5.5090    1.7393 H         1 <0>         0.0812
     56 H13        -0.5378   -0.6778    2.3126 H         1 <0>         0.0731
     57 H14         2.6304   -3.2407    2.8169 H         1 <0>         0.0511
     58 H15         0.4523   -3.8218    3.4319 H         1 <0>         0.0753
     59 H16         0.3841   -4.5700   -0.3844 H         1 <0>         0.0427
     60 H17        -6.0375    0.3284    3.1563 H         1 <0>         0.0450
     61 H18        -5.8542   -1.3328    3.7128 H         1 <0>         0.0406
     62 H19        -5.2988   -0.8789    2.0908 H         1 <0>         0.0274
     63 H20        -3.3028    0.8425    1.9049 H         1 <0>         0.0476
     64 H21        -4.1178    1.8926    3.0773 H         1 <0>         0.0170
     65 H22        -2.4708    1.3315    3.3922 H         1 <0>         0.0477
     66 H23        -5.1607   -2.4579   -2.2324 H         1 <0>         0.0814
     67 H24        -6.7403   -3.1770   -1.9985 H         1 <0>         0.0685
     68 H25        -1.9473    2.5434   -3.1941 H         1 <0>         0.1016
     69 H26        -0.1993    2.7456   -3.2583 H         1 <0>         0.0660
     70 H27        -1.7000    0.7382   -1.4859 H         1 <0>         0.0512
     71 H28        -1.0340    2.2618   -0.9330 H         1 <0>         0.0454
     72 H29        -2.0302   -1.0518    4.0061 H         1 <0>         0.0575
     73 H30        -3.3514   -2.1846    4.2177 H         1 <0>         0.0743
     74 H31        -1.7187    0.1787   -3.9697 H         1 <0>         0.0662
     75 H32         0.0401    0.3636   -4.0280 H         1 <0>         0.0622
     76 H33         1.7842    2.0214   -2.5223 H         1 <0>         0.0321
     77 H34         2.5988    1.0866   -1.2555 H         1 <0>         0.0204
     78 H35        -2.3647   -1.1082    1.5019 H         1 <0>         0.0749
     79 H36        -6.2595   -2.7988    0.6177 H         1 <0>         0.0719
     80 H37        -4.1195    0.0762    4.7551 H         1 <0>         0.0609
     81 H38         0.5463   -0.0881   -2.0483 H         1 <0>         0.1063
     82 H39        -1.1773    2.2602   -7.9911 H         1 <0>         0.4792
     83 H40        -0.9951    0.6924   -8.7134 H         1 <0>         0.4819
     84 H41        -0.6834   -1.1551   -5.6072 H         1 <0>         0.4802
     85 H42        -0.7090   -1.2825   -7.3424 H         1 <0>         0.4826
     86 H43         0.8216    0.7626    0.7549 H         1 <0>         0.3101
     87 H44        -4.7231   -2.7191    2.1790 H         1 <0>         0.3087
     88 H45        -1.1420    2.4704   -5.5758 H         1 <0>         0.4846
     89 H46        -9.0832    2.6009   -0.5014 H         1 <0>         0.4194
     90 H47         1.8515   -6.8926    0.0654 H         1 <0>         0.4036
     91 H48         1.0115    3.3975   -1.0313 H         1 <0>         0.4114
     92 H49        -5.9013   -4.7317   -1.0509 H         1 <0>         0.3944
@<TRIPOS>BOND
     1    1    3 ar
     2    1    5 ar
     3    2    4 ar
     4    2    5 ar
     5    3    6 ar
     6    4    6 ar
     7    5   21 1
     8    6   40 1
     9    7   15 1
    10    7   34 am
    11    7   37 2
    12    8   27 1
    13    8   31 am
    14    8   38 2
    15    9   28 1
    16    9   35 am
    17    9   39 2
    18   10   32 1
    19   10   33 1
    20   10   36 1
    21   11   12 1
    22   11   16 1
    23   12   18 1
    24   13   15 1
    25   13   16 1
    26   14   17 1
    27   14   18 1
    28   15   31 1
    29   16   17 1
    30   17   31 1
    31   18   41 1
    32   19   29 1
    33   20   29 1
    34   21   28 1
    35   22   23 1
    36   22   25 1
    37   23   30 1
    38   24   27 1
    39   24   29 1
    40   25   36 1
    41   26   30 1
    42   26   42 1
    43   27   35 1
    44   28   43 1
    45   30   34 1
    46    1   44 1
    47    2   45 1
    48    3   46 1
    49    4   47 1
    50   11   48 1
    51   11   49 1
    52   12   50 1
    53   12   51 1
    54   13   52 1
    55   13   53 1
    56   14   54 1
    57   14   55 1
    58   15   56 1
    59   16   57 1
    60   17   58 1
    61   18   59 1
    62   19   60 1
    63   19   61 1
    64   19   62 1
    65   20   63 1
    66   20   64 1
    67   20   65 1
    68   21   66 1
    69   21   67 1
    70   22   68 1
    71   22   69 1
    72   23   70 1
    73   23   71 1
    74   24   72 1
    75   24   73 1
    76   25   74 1
    77   25   75 1
    78   26   76 1
    79   26   77 1
    80   27   78 1
    81   28   79 1
    82   29   80 1
    83   30   81 1
    84   32   82 1
    85   32   83 1
    86   33   84 1
    87   33   85 1
    88   34   86 1
    89   35   87 1
    90   36   88 1
    91   40   89 1
    92   41   90 1
    93   42   91 1
    94   43   92 1
@<TRIPOS>MOLECULE
1a2c_ligand_44
   92    94     0     0     0
SMALL
USER_CHARGES

mmff94s_NoEstat = 107.50
@<TRIPOS>ATOM
      1 C1         -8.6272   -2.8492   -1.4308 C.ar      1 <0>        -0.0708
      2 C2         -8.6280   -2.4747    0.9560 C.ar      1 <0>        -0.0872
      3 C3         -9.9370   -3.3232   -1.3568 C.ar      1 <0>        -0.2241
      4 C4         -9.9377   -2.9488    1.0300 C.ar      1 <0>        -0.1600
      5 C5         -7.9904   -2.4312   -0.2734 C.ar      1 <0>        -0.1356
      6 C6        -10.5923   -3.3731   -0.1264 C.ar      1 <0>         0.1290
      7 C7         -0.0512   -1.0561    0.2993 C.2       1 <0>         0.6664
      8 C8         -1.8469   -3.0457    2.1630 C.2       1 <0>         0.6651
      9 C9         -4.1811   -2.4610    0.1870 C.2       1 <0>         0.6454
     10 C10        -0.9406    0.6782   -6.6110 C.cat     1 <0>         0.6349
     11 C11         2.5186   -3.1911    0.6823 C.3       1 <0>        -0.0642
     12 C12         2.4580   -4.6414    0.2376 C.3       1 <0>        -0.0747
     13 C13         1.4874   -1.4827    2.2418 C.3       1 <0>        -0.0873
     14 C14         0.4946   -5.0934    1.7133 C.3       1 <0>        -0.1371
     15 C15         0.0412   -1.4176    1.7503 C.3       1 <0>         0.0360
     16 C16         1.8865   -2.9529    2.0632 C.3       1 <0>        -0.0720
     17 C17         0.5665   -3.7001    2.3454 C.3       1 <0>         0.1201
     18 C18         1.0248   -5.1525    0.2868 C.3       1 <0>         0.1453
     19 C19        -5.3726   -0.5418    3.1302 C.3       1 <0>        -0.0968
     20 C20        -3.4397    1.0389    2.9738 C.3       1 <0>        -0.0986
     21 C21        -6.5727   -1.9173   -0.3536 C.3       1 <0>        -0.0191
     22 C22        -0.9951    2.0137   -3.0747 C.3       1 <0>        -0.1009
     23 C23        -0.8794    1.4488   -1.6540 C.3       1 <0>        -0.0942
     24 C24        -2.9973   -1.3585    3.5851 C.3       1 <0>        -0.0988
     25 C25        -0.9093    0.9015   -4.1176 C.3       1 <0>         0.1966
     26 C26         1.6856    1.6412   -1.5001 C.3       1 <0>         0.1128
     27 C27        -2.7865   -1.8644    2.1628 C.3       1 <0>         0.0786
     28 C28        -5.5432   -3.0384   -0.1771 C.3       1 <0>         0.0744
     29 C29        -3.9969   -0.1898    3.6979 C.3       1 <0>        -0.0678
     30 C30         0.4555    0.7445   -1.3388 C.3       1 <0>         0.1065
     31 N1         -0.4979   -2.7598    1.9615 N.am      1 <0>        -0.4315
     32 N2         -1.0455    1.2596   -7.8703 N.pl3     1 <0>        -0.8671
     33 N3         -0.7637   -0.6976   -6.5120 N.pl3     1 <0>        -0.8581
     34 N4          0.4455    0.1980   -0.0008 N.am      1 <0>        -0.5687
     35 N5         -3.9799   -2.3853    1.5634 N.am      1 <0>        -0.5746
     36 N6         -1.0107    1.4600   -5.4449 N.pl3     1 <0>        -0.7533
     37 O1         -0.5362   -1.8555   -0.4928 O.2       1 <0>        -0.5843
     38 O2         -2.2998   -4.1783    2.3409 O.2       1 <0>        -0.6812
     39 O3         -3.3708   -2.0954   -0.6616 O.2       1 <0>        -0.5788
     40 O4        -11.8709   -3.8342   -0.0545 O.3       1 <0>        -0.4938
     41 O5          0.9879   -6.5072   -0.1510 O.3       1 <0>        -0.6030
     42 O6          1.5971    2.7470   -0.6113 O.3       1 <0>        -0.5860
     43 O7         -5.4138   -3.7436   -1.4033 O.3       1 <0>        -0.6021
     44 H1         -8.1249   -2.8142   -2.3937 H         1 <0>         0.1412
     45 H2         -8.1259   -2.1460    1.8623 H         1 <0>         0.1451
     46 H3        -10.4414   -3.6521   -2.2611 H         1 <0>         0.1336
     47 H4        -10.4433   -2.9843    1.9914 H         1 <0>         0.1567
     48 H5          3.5627   -2.8549    0.7003 H         1 <0>         0.0649
     49 H6          2.0259   -2.5829   -0.0837 H         1 <0>         0.0476
     50 H7          2.8567   -4.7427   -0.7790 H         1 <0>         0.0641
     51 H8          3.1032   -5.2618    0.8729 H         1 <0>         0.0484
     52 H9          2.1569   -0.7868    1.7257 H         1 <0>         0.0596
     53 H10         1.5124   -1.2395    3.3116 H         1 <0>         0.0757
     54 H11         1.0921   -5.7802    2.3299 H         1 <0>         0.0782
     55 H12        -0.5175   -5.5090    1.7393 H         1 <0>         0.0812
     56 H13        -0.5378   -0.6778    2.3126 H         1 <0>         0.0731
     57 H14         2.6304   -3.2407    2.8169 H         1 <0>         0.0511
     58 H15         0.4523   -3.8218    3.4319 H         1 <0>         0.0753
     59 H16         0.3841   -4.5700   -0.3844 H         1 <0>         0.0427
     60 H17        -6.0375    0.3284    3.1563 H         1 <0>         0.0450
     61 H18        -5.8542   -1.3328    3.7128 H         1 <0>         0.0406
     62 H19        -5.2988   -0.8789    2.0908 H         1 <0>         0.0274
     63 H20        -3.3028    0.8425    1.9049 H         1 <0>         0.0476
     64 H21        -4.1178    1.8926    3.0773 H         1 <0>         0.0170
     65 H22        -2.4708    1.3315    3.3922 H         1 <0>         0.0477
     66 H23        -6.4251   -1.1465    0.4146 H         1 <0>         0.0814
     67 H24        -6.4443   -1.4079   -1.3169 H         1 <0>         0.0685
     68 H25        -1.9473    2.5434   -3.1941 H         1 <0>         0.1016
     69 H26        -0.1993    2.7456   -3.2583 H         1 <0>         0.0660
     70 H27        -1.7000    0.7382   -1.4859 H         1 <0>         0.0512
     71 H28        -1.0340    2.2618   -0.9330 H         1 <0>         0.0454
     72 H29        -2.0302   -1.0518    4.0061 H         1 <0>         0.0575
     73 H30        -3.3514   -2.1846    4.2177 H         1 <0>         0.0743
     74 H31        -1.7187    0.1787   -3.9697 H         1 <0>         0.0662
     75 H32         0.0401    0.3636   -4.0280 H         1 <0>         0.0622
     76 H33         1.7842    2.0214   -2.5223 H         1 <0>         0.0321
     77 H34         2.5988    1.0866   -1.2555 H         1 <0>         0.0204
     78 H35        -2.3647   -1.1082    1.5019 H         1 <0>         0.0749
     79 H36        -5.8508   -3.7504    0.5980 H         1 <0>         0.0719
     80 H37        -4.1195    0.0762    4.7551 H         1 <0>         0.0609
     81 H38         0.5463   -0.0881   -2.0483 H         1 <0>         0.1063
     82 H39        -1.1773    2.2602   -7.9911 H         1 <0>         0.4792
     83 H40        -0.9951    0.6924   -8.7134 H         1 <0>         0.4819
     84 H41        -0.6834   -1.1551   -5.6072 H         1 <0>         0.4802
     85 H42        -0.7090   -1.2825   -7.3424 H         1 <0>         0.4826
     86 H43         0.8216    0.7626    0.7549 H         1 <0>         0.3101
     87 H44        -4.7231   -2.7191    2.1790 H         1 <0>         0.3087
     88 H45        -1.1420    2.4704   -5.5758 H         1 <0>         0.4846
     89 H46       -12.0198   -4.5188   -0.7260 H         1 <0>         0.4194
     90 H47         1.8515   -6.8926    0.0654 H         1 <0>         0.4036
     91 H48         1.0115    3.3975   -1.0313 H         1 <0>         0.4114
     92 H49        -6.1819   -3.5045   -1.9474 H         1 <0>         0.3944
@<TRIPOS>BOND
     1    1    3 ar
     2    1    5 ar
     3    2    4 ar
     4    2    5 ar
     5    3    6 ar
     6    4    6 ar
     7    5   21 1
     8    6   40 1
     9    7   15 1
    10    7   34 am
    11    7   37 2
    12    8   27 1
    13    8   31 am
    14    8   38 2
    15    9   28 1
    16    9   35 am
    17    9   39 2
    18   10   32 1
    19   10   33 1
    20   10   36 1
    21   11   12 1
    22   11   16 1
    23   12   18 1
    24   13   15 1
    25   13   16 1
    26   14   17 1
    27   14   18 1
    28   15   31 1
    29   16   17 1
    30   17   31 1
    31   18   41 1
    32   19   29 1
    33   20   29 1
    34   21   28 1
    35   22   23 1
    36   22   25 1
    37   23   30 1
    38   24   27 1
    39   24   29 1
    40   25   36 1
    41   26   30 1
    42   26   42 1
    43   27   35 1
    44   28   43 1
    45   30   34 1
    46    1   44 1
    47    2   45 1
    48    3   46 1
    49    4   47 1
    50   11   48 1
    51   11   49 1
    52   12   50 1
    53   12   51 1
    54   13   52 1
    55   13   53 1
    56   14   54 1
    57   14   55 1
    58   15   56 1
    59   16   57 1
    60   17   58 1
    61   18   59 1
    62   19   60 1
    63   19   61 1
    64   19   62 1
    65   20   63 1
    66   20   64 1
    67   20   65 1
    68   21   66 1
    69   21   67 1
    70   22   68 1
    71   22   69 1
    72   23   70 1
    73   23   71 1
    74   24   72 1
    75   24   73 1
    76   25   74 1
    77   25   75 1
    78   26   76 1
    79   26   77 1
    80   27   78 1
    81   28   79 1
    82   29   80 1
    83   30   81 1
    84   32   82 1
    85   32   83 1
    86   33   84 1
    87   33   85 1
    88   34   86 1
    89   35   87 1
    90   36   88 1
    91   40   89 1
    92   41   90 1
    93   42   91 1
    94   43   92 1
@<TRIPOS>MOLECULE
1a2c_ligand_45
   92    94     0     0     0
SMALL
USER_CHARGES

mmff94s_NoEstat = 107.61
@<TRIPOS>ATOM
      1 C1         -8.6891   -1.0874    0.2432 C.ar      1 <0>        -0.0708
      2 C2         -6.8597    0.4829    0.0867 C.ar      1 <0>        -0.0872
      3 C3         -9.4297   -0.1524    0.9664 C.ar      1 <0>        -0.2241
      4 C4         -7.6003    1.4179    0.8099 C.ar      1 <0>        -0.1600
      5 C5         -7.4141   -0.7571   -0.1870 C.ar      1 <0>        -0.1356
      6 C6         -8.8853    1.1002    1.2498 C.ar      1 <0>         0.1290
      7 C7         -0.0512   -1.0561    0.2993 C.2       1 <0>         0.6664
      8 C8         -1.8469   -3.0457    2.1630 C.2       1 <0>         0.6651
      9 C9         -4.4743   -1.9575    0.3333 C.2       1 <0>         0.6454
     10 C10        -3.3294    2.0808   -3.5565 C.cat     1 <0>         0.6349
     11 C11         2.5186   -3.1911    0.6823 C.3       1 <0>        -0.0642
     12 C12         2.4580   -4.6414    0.2376 C.3       1 <0>        -0.0747
     13 C13         1.4874   -1.4827    2.2418 C.3       1 <0>        -0.0873
     14 C14         0.4946   -5.0934    1.7133 C.3       1 <0>        -0.1371
     15 C15         0.0412   -1.4176    1.7503 C.3       1 <0>         0.0360
     16 C16         1.8865   -2.9529    2.0632 C.3       1 <0>        -0.0720
     17 C17         0.5665   -3.7001    2.3454 C.3       1 <0>         0.1201
     18 C18         1.0248   -5.1525    0.2868 C.3       1 <0>         0.1453
     19 C19        -5.3726   -0.5418    3.1302 C.3       1 <0>        -0.0968
     20 C20        -3.4397    1.0389    2.9738 C.3       1 <0>        -0.0986
     21 C21        -6.6126   -1.7691   -0.9705 C.3       1 <0>        -0.0191
     22 C22        -1.0374    2.7415   -0.6235 C.3       1 <0>        -0.1009
     23 C23         0.2513    2.2726   -1.3090 C.3       1 <0>        -0.0942
     24 C24        -2.9973   -1.3585    3.5851 C.3       1 <0>        -0.0988
     25 C25        -2.2684    2.1304   -1.2894 C.3       1 <0>         0.1966
     26 C26         1.7383    0.3016   -2.0469 C.3       1 <0>         0.1128
     27 C27        -2.7865   -1.8644    2.1628 C.3       1 <0>         0.0786
     28 C28        -5.7663   -2.6636   -0.0588 C.3       1 <0>         0.0744
     29 C29        -3.9969   -0.1898    3.6979 C.3       1 <0>        -0.0678
     30 C30         0.4555    0.7445   -1.3388 C.3       1 <0>         0.1065
     31 N1         -0.4979   -2.7598    1.9615 N.am      1 <0>        -0.4315
     32 N2         -3.3390    2.4766   -4.8899 N.pl3     1 <0>        -0.8671
     33 N3         -4.3382    1.2447   -3.0902 N.pl3     1 <0>        -0.8581
     34 N4          0.4455    0.1980   -0.0008 N.am      1 <0>        -0.5687
     35 N5         -3.9799   -2.3853    1.5634 N.am      1 <0>        -0.5746
     36 N6         -2.3186    2.5130   -2.6805 N.pl3     1 <0>        -0.7533
     37 O1         -0.5362   -1.8555   -0.4928 O.2       1 <0>        -0.5843
     38 O2         -2.2998   -4.1783    2.3409 O.2       1 <0>        -0.6812
     39 O3         -3.9527   -1.0962   -0.3713 O.2       1 <0>        -0.5788
     40 O4         -9.6087    2.0131    1.9541 O.3       1 <0>        -0.4938
     41 O5          0.9879   -6.5072   -0.1510 O.3       1 <0>        -0.6030
     42 O6          2.8703    0.8436   -1.3793 O.3       1 <0>        -0.5860
     43 O7         -5.4285   -3.8509   -0.7614 O.3       1 <0>        -0.6021
     44 H1         -9.1215   -2.0606    0.0275 H         1 <0>         0.1412
     45 H2         -5.8593    0.7393   -0.2523 H         1 <0>         0.1451
     46 H3        -10.4301   -0.4058    1.3062 H         1 <0>         0.1336
     47 H4         -7.1710    2.3925    1.0267 H         1 <0>         0.1567
     48 H5          3.5627   -2.8549    0.7003 H         1 <0>         0.0649
     49 H6          2.0259   -2.5829   -0.0837 H         1 <0>         0.0476
     50 H7          2.8567   -4.7427   -0.7790 H         1 <0>         0.0641
     51 H8          3.1032   -5.2618    0.8729 H         1 <0>         0.0484
     52 H9          2.1569   -0.7868    1.7257 H         1 <0>         0.0596
     53 H10         1.5124   -1.2395    3.3116 H         1 <0>         0.0757
     54 H11         1.0921   -5.7802    2.3299 H         1 <0>         0.0782
     55 H12        -0.5175   -5.5090    1.7393 H         1 <0>         0.0812
     56 H13        -0.5378   -0.6778    2.3126 H         1 <0>         0.0731
     57 H14         2.6304   -3.2407    2.8169 H         1 <0>         0.0511
     58 H15         0.4523   -3.8218    3.4319 H         1 <0>         0.0753
     59 H16         0.3841   -4.5700   -0.3844 H         1 <0>         0.0427
     60 H17        -6.0375    0.3284    3.1563 H         1 <0>         0.0450
     61 H18        -5.8542   -1.3328    3.7128 H         1 <0>         0.0406
     62 H19        -5.2988   -0.8789    2.0908 H         1 <0>         0.0274
     63 H20        -3.3028    0.8425    1.9049 H         1 <0>         0.0476
     64 H21        -4.1178    1.8926    3.0773 H         1 <0>         0.0170
     65 H22        -2.4708    1.3315    3.3922 H         1 <0>         0.0477
     66 H23        -5.9666   -1.2415   -1.6850 H         1 <0>         0.0814
     67 H24        -7.3067   -2.3638   -1.5776 H         1 <0>         0.0685
     68 H25        -1.0263    2.4588    0.4356 H         1 <0>         0.1016
     69 H26        -1.1105    3.8350   -0.6596 H         1 <0>         0.0660
     70 H27         1.1110    2.7323   -0.8028 H         1 <0>         0.0512
     71 H28         0.2685    2.6560   -2.3373 H         1 <0>         0.0454
     72 H29        -2.0302   -1.0518    4.0061 H         1 <0>         0.0575
     73 H30        -3.3514   -2.1846    4.2177 H         1 <0>         0.0743
     74 H31        -3.1804    2.4738   -0.7898 H         1 <0>         0.0662
     75 H32        -2.2399    1.0381   -1.2201 H         1 <0>         0.0622
     76 H33         1.7614    0.6251   -3.0928 H         1 <0>         0.0321
     77 H34         1.8289   -0.7905   -2.0281 H         1 <0>         0.0204
     78 H35        -2.3647   -1.1082    1.5019 H         1 <0>         0.0749
     79 H36        -6.3120   -2.9453    0.8496 H         1 <0>         0.0719
     80 H37        -4.1195    0.0762    4.7551 H         1 <0>         0.0609
     81 H38        -0.3978    0.3245   -1.8868 H         1 <0>         0.1063
     82 H39        -2.6237    3.0881   -5.2742 H         1 <0>         0.4792
     83 H40        -4.0716    2.1635   -5.5226 H         1 <0>         0.4819
     84 H41        -4.3615    0.9362   -2.1213 H         1 <0>         0.4802
     85 H42        -5.0788    0.9188   -3.7066 H         1 <0>         0.4826
     86 H43         0.8216    0.7626    0.7549 H         1 <0>         0.3101
     87 H44        -4.4957   -3.1095    2.0656 H         1 <0>         0.3087
     88 H45        -1.5986    3.1289   -3.0773 H         1 <0>         0.4846
     89 H46       -10.1852    1.5647    2.5931 H         1 <0>         0.4194
     90 H47         1.8515   -6.8926    0.0654 H         1 <0>         0.4036
     91 H48         2.9636    1.7601   -1.6856 H         1 <0>         0.4114
     92 H49        -6.0237   -3.9035   -1.5269 H         1 <0>         0.3944
@<TRIPOS>BOND
     1    1    3 ar
     2    1    5 ar
     3    2    4 ar
     4    2    5 ar
     5    3    6 ar
     6    4    6 ar
     7    5   21 1
     8    6   40 1
     9    7   15 1
    10    7   34 am
    11    7   37 2
    12    8   27 1
    13    8   31 am
    14    8   38 2
    15    9   28 1
    16    9   35 am
    17    9   39 2
    18   10   32 1
    19   10   33 1
    20   10   36 1
    21   11   12 1
    22   11   16 1
    23   12   18 1
    24   13   15 1
    25   13   16 1
    26   14   17 1
    27   14   18 1
    28   15   31 1
    29   16   17 1
    30   17   31 1
    31   18   41 1
    32   19   29 1
    33   20   29 1
    34   21   28 1
    35   22   23 1
    36   22   25 1
    37   23   30 1
    38   24   27 1
    39   24   29 1
    40   25   36 1
    41   26   30 1
    42   26   42 1
    43   27   35 1
    44   28   43 1
    45   30   34 1
    46    1   44 1
    47    2   45 1
    48    3   46 1
    49    4   47 1
    50   11   48 1
    51   11   49 1
    52   12   50 1
    53   12   51 1
    54   13   52 1
    55   13   53 1
    56   14   54 1
    57   14   55 1
    58   15   56 1
    59   16   57 1
    60   17   58 1
    61   18   59 1
    62   19   60 1
    63   19   61 1
    64   19   62 1
    65   20   63 1
    66   20   64 1
    67   20   65 1
    68   21   66 1
    69   21   67 1
    70   22   68 1
    71   22   69 1
    72   23   70 1
    73   23   71 1
    74   24   72 1
    75   24   73 1
    76   25   74 1
    77   25   75 1
    78   26   76 1
    79   26   77 1
    80   27   78 1
    81   28   79 1
    82   29   80 1
    83   30   81 1
    84   32   82 1
    85   32   83 1
    86   33   84 1
    87   33   85 1
    88   34   86 1
    89   35   87 1
    90   36   88 1
    91   40   89 1
    92   41   90 1
    93   42   91 1
    94   43   92 1
@<TRIPOS>MOLECULE
1a2c_ligand_46
   92    94     0     0     0
SMALL
USER_CHARGES

mmff94s_NoEstat = 107.61
@<TRIPOS>ATOM
      1 C1         -8.6272   -2.8492   -1.4308 C.ar      1 <0>        -0.0708
      2 C2         -8.6280   -2.4747    0.9560 C.ar      1 <0>        -0.0872
      3 C3         -9.9370   -3.3232   -1.3568 C.ar      1 <0>        -0.2241
      4 C4         -9.9377   -2.9488    1.0300 C.ar      1 <0>        -0.1600
      5 C5         -7.9904   -2.4312   -0.2734 C.ar      1 <0>        -0.1356
      6 C6        -10.5923   -3.3731   -0.1264 C.ar      1 <0>         0.1290
      7 C7         -0.0512   -1.0561    0.2993 C.2       1 <0>         0.6664
      8 C8         -1.8469   -3.0457    2.1630 C.2       1 <0>         0.6651
      9 C9         -4.1811   -2.4610    0.1870 C.2       1 <0>         0.6454
     10 C10        -2.0056    2.7787   -5.7609 C.cat     1 <0>         0.6349
     11 C11         2.5186   -3.1911    0.6823 C.3       1 <0>        -0.0642
     12 C12         2.4580   -4.6414    0.2376 C.3       1 <0>        -0.0747
     13 C13         1.4874   -1.4827    2.2418 C.3       1 <0>        -0.0873
     14 C14         0.4946   -5.0934    1.7133 C.3       1 <0>        -0.1371
     15 C15         0.0412   -1.4176    1.7503 C.3       1 <0>         0.0360
     16 C16         1.8865   -2.9529    2.0632 C.3       1 <0>        -0.0720
     17 C17         0.5665   -3.7001    2.3454 C.3       1 <0>         0.1201
     18 C18         1.0248   -5.1525    0.2868 C.3       1 <0>         0.1453
     19 C19        -5.3726   -0.5418    3.1302 C.3       1 <0>        -0.0968
     20 C20        -3.4397    1.0389    2.9738 C.3       1 <0>        -0.0986
     21 C21        -6.5727   -1.9173   -0.3536 C.3       1 <0>        -0.0191
     22 C22         0.1864    2.9452   -2.6852 C.3       1 <0>        -0.1009
     23 C23         0.2513    2.2726   -1.3090 C.3       1 <0>        -0.0942
     24 C24        -2.9973   -1.3585    3.5851 C.3       1 <0>        -0.0988
     25 C25        -1.0020    2.4297   -3.4939 C.3       1 <0>         0.1966
     26 C26         1.7383    0.3016   -2.0469 C.3       1 <0>         0.1128
     27 C27        -2.7865   -1.8644    2.1628 C.3       1 <0>         0.0786
     28 C28        -5.5432   -3.0384   -0.1771 C.3       1 <0>         0.0744
     29 C29        -3.9969   -0.1898    3.6979 C.3       1 <0>        -0.0678
     30 C30         0.4555    0.7445   -1.3388 C.3       1 <0>         0.1065
     31 N1         -0.4979   -2.7598    1.9615 N.am      1 <0>        -0.4315
     32 N2         -1.9996    3.4228   -6.9937 N.pl3     1 <0>        -0.8671
     33 N3         -2.9898    1.8329   -5.4950 N.pl3     1 <0>        -0.8581
     34 N4          0.4455    0.1980   -0.0008 N.am      1 <0>        -0.5687
     35 N5         -3.9799   -2.3853    1.5634 N.am      1 <0>        -0.5746
     36 N6         -1.0347    3.0704   -4.7872 N.pl3     1 <0>        -0.7533
     37 O1         -0.5362   -1.8555   -0.4928 O.2       1 <0>        -0.5843
     38 O2         -2.2998   -4.1783    2.3409 O.2       1 <0>        -0.6812
     39 O3         -3.3708   -2.0954   -0.6616 O.2       1 <0>        -0.5788
     40 O4        -11.8709   -3.8342   -0.0545 O.3       1 <0>        -0.4938
     41 O5          0.9879   -6.5072   -0.1510 O.3       1 <0>        -0.6030
     42 O6          2.8703    0.8436   -1.3793 O.3       1 <0>        -0.5860
     43 O7         -5.4138   -3.7436   -1.4033 O.3       1 <0>        -0.6021
     44 H1         -8.1249   -2.8142   -2.3937 H         1 <0>         0.1412
     45 H2         -8.1259   -2.1460    1.8623 H         1 <0>         0.1451
     46 H3        -10.4414   -3.6521   -2.2611 H         1 <0>         0.1336
     47 H4        -10.4433   -2.9843    1.9914 H         1 <0>         0.1567
     48 H5          3.5627   -2.8549    0.7003 H         1 <0>         0.0649
     49 H6          2.0259   -2.5829   -0.0837 H         1 <0>         0.0476
     50 H7          2.8567   -4.7427   -0.7790 H         1 <0>         0.0641
     51 H8          3.1032   -5.2618    0.8729 H         1 <0>         0.0484
     52 H9          2.1569   -0.7868    1.7257 H         1 <0>         0.0596
     53 H10         1.5124   -1.2395    3.3116 H         1 <0>         0.0757
     54 H11         1.0921   -5.7802    2.3299 H         1 <0>         0.0782
     55 H12        -0.5175   -5.5090    1.7393 H         1 <0>         0.0812
     56 H13        -0.5378   -0.6778    2.3126 H         1 <0>         0.0731
     57 H14         2.6304   -3.2407    2.8169 H         1 <0>         0.0511
     58 H15         0.4523   -3.8218    3.4319 H         1 <0>         0.0753
     59 H16         0.3841   -4.5700   -0.3844 H         1 <0>         0.0427
     60 H17        -6.0375    0.3284    3.1563 H         1 <0>         0.0450
     61 H18        -5.8542   -1.3328    3.7128 H         1 <0>         0.0406
     62 H19        -5.2988   -0.8789    2.0908 H         1 <0>         0.0274
     63 H20        -3.3028    0.8425    1.9049 H         1 <0>         0.0476
     64 H21        -4.1178    1.8926    3.0773 H         1 <0>         0.0170
     65 H22        -2.4708    1.3315    3.3922 H         1 <0>         0.0477
     66 H23        -6.4251   -1.1465    0.4146 H         1 <0>         0.0814
     67 H24        -6.4443   -1.4079   -1.3169 H         1 <0>         0.0685
     68 H25         0.0968    4.0317   -2.5708 H         1 <0>         0.1016
     69 H26         1.1124    2.7598   -3.2426 H         1 <0>         0.0660
     70 H27        -0.6751    2.4928   -0.7614 H         1 <0>         0.0512
     71 H28         1.0606    2.7304   -0.7258 H         1 <0>         0.0454
     72 H29        -2.0302   -1.0518    4.0061 H         1 <0>         0.0575
     73 H30        -3.3514   -2.1846    4.2177 H         1 <0>         0.0743
     74 H31        -1.9392    2.6377   -2.9668 H         1 <0>         0.0662
     75 H32        -0.9302    1.3462   -3.6338 H         1 <0>         0.0622
     76 H33         1.7614    0.6251   -3.0928 H         1 <0>         0.0321
     77 H34         1.8289   -0.7905   -2.0281 H         1 <0>         0.0204
     78 H35        -2.3647   -1.1082    1.5019 H         1 <0>         0.0749
     79 H36        -5.8508   -3.7504    0.5980 H         1 <0>         0.0719
     80 H37        -4.1195    0.0762    4.7551 H         1 <0>         0.0609
     81 H38        -0.3978    0.3245   -1.8868 H         1 <0>         0.1063
     82 H39        -1.3012    4.1221   -7.2314 H         1 <0>         0.4792
     83 H40        -2.7033    3.2110   -7.6973 H         1 <0>         0.4819
     84 H41        -3.0236    1.3433   -4.6041 H         1 <0>         0.4802
     85 H42        -3.7014    1.6051   -6.1852 H         1 <0>         0.4826
     86 H43         0.8216    0.7626    0.7549 H         1 <0>         0.3101
     87 H44        -4.7231   -2.7191    2.1790 H         1 <0>         0.3087
     88 H45        -0.3315    3.7766   -5.0361 H         1 <0>         0.4846
     89 H46       -12.0198   -4.5188   -0.7260 H         1 <0>         0.4194
     90 H47         1.8515   -6.8926    0.0654 H         1 <0>         0.4036
     91 H48         2.9636    1.7601   -1.6856 H         1 <0>         0.4114
     92 H49        -6.1819   -3.5045   -1.9474 H         1 <0>         0.3944
@<TRIPOS>BOND
     1    1    3 ar
     2    1    5 ar
     3    2    4 ar
     4    2    5 ar
     5    3    6 ar
     6    4    6 ar
     7    5   21 1
     8    6   40 1
     9    7   15 1
    10    7   34 am
    11    7   37 2
    12    8   27 1
    13    8   31 am
    14    8   38 2
    15    9   28 1
    16    9   35 am
    17    9   39 2
    18   10   32 1
    19   10   33 1
    20   10   36 1
    21   11   12 1
    22   11   16 1
    23   12   18 1
    24   13   15 1
    25   13   16 1
    26   14   17 1
    27   14   18 1
    28   15   31 1
    29   16   17 1
    30   17   31 1
    31   18   41 1
    32   19   29 1
    33   20   29 1
    34   21   28 1
    35   22   23 1
    36   22   25 1
    37   23   30 1
    38   24   27 1
    39   24   29 1
    40   25   36 1
    41   26   30 1
    42   26   42 1
    43   27   35 1
    44   28   43 1
    45   30   34 1
    46    1   44 1
    47    2   45 1
    48    3   46 1
    49    4   47 1
    50   11   48 1
    51   11   49 1
    52   12   50 1
    53   12   51 1
    54   13   52 1
    55   13   53 1
    56   14   54 1
    57   14   55 1
    58   15   56 1
    59   16   57 1
    60   17   58 1
    61   18   59 1
    62   19   60 1
    63   19   61 1
    64   19   62 1
    65   20   63 1
    66   20   64 1
    67   20   65 1
    68   21   66 1
    69   21   67 1
    70   22   68 1
    71   22   69 1
    72   23   70 1
    73   23   71 1
    74   24   72 1
    75   24   73 1
    76   25   74 1
    77   25   75 1
    78   26   76 1
    79   26   77 1
    80   27   78 1
    81   28   79 1
    82   29   80 1
    83   30   81 1
    84   32   82 1
    85   32   83 1
    86   33   84 1
    87   33   85 1
    88   34   86 1
    89   35   87 1
    90   36   88 1
    91   40   89 1
    92   41   90 1
    93   42   91 1
    94   43   92 1
@<TRIPOS>MOLECULE
1a2c_ligand_47
   92    94     0     0     0
SMALL
USER_CHARGES

mmff94s_NoEstat = 107.63
@<TRIPOS>ATOM
      1 C1         -7.7594   -0.6221    0.4299 C.ar      1 <0>        -0.0708
      2 C2         -5.6879    0.2837   -0.4219 C.ar      1 <0>        -0.0872
      3 C3         -8.0094    0.5771    1.0970 C.ar      1 <0>        -0.2241
      4 C4         -5.9379    1.4829    0.2452 C.ar      1 <0>        -0.1600
      5 C5         -6.6020   -0.7527   -0.3206 C.ar      1 <0>        -0.1356
      6 C6         -7.0987    1.6297    1.0046 C.ar      1 <0>         0.1290
      7 C7         -0.0512   -1.0561    0.2993 C.2       1 <0>         0.6664
      8 C8         -1.8469   -3.0457    2.1630 C.2       1 <0>         0.6651
      9 C9         -4.1811   -2.4610    0.1870 C.2       1 <0>         0.6454
     10 C10         5.9740   -1.8739   -3.0762 C.cat     1 <0>         0.6349
     11 C11         2.5186   -3.1911    0.6823 C.3       1 <0>        -0.0642
     12 C12         2.4580   -4.6414    0.2376 C.3       1 <0>        -0.0747
     13 C13         1.4874   -1.4827    2.2418 C.3       1 <0>        -0.0873
     14 C14         0.4946   -5.0934    1.7133 C.3       1 <0>        -0.1371
     15 C15         0.0412   -1.4176    1.7503 C.3       1 <0>         0.0360
     16 C16         1.8865   -2.9529    2.0632 C.3       1 <0>        -0.0720
     17 C17         0.5665   -3.7001    2.3454 C.3       1 <0>         0.1201
     18 C18         1.0248   -5.1525    0.2868 C.3       1 <0>         0.1453
     19 C19        -5.3726   -0.5418    3.1302 C.3       1 <0>        -0.0968
     20 C20        -3.4397    1.0389    2.9738 C.3       1 <0>        -0.0986
     21 C21        -6.3317   -2.0507   -1.0434 C.3       1 <0>        -0.0191
     22 C22         2.8091   -0.2380   -1.8118 C.3       1 <0>        -0.1009
     23 C23         1.3524   -0.0970   -2.2688 C.3       1 <0>        -0.0942
     24 C24        -2.9973   -1.3585    3.5851 C.3       1 <0>        -0.0988
     25 C25         3.6273   -1.0396   -2.8217 C.3       1 <0>         0.1966
     26 C26        -0.9878    0.8875   -1.8280 C.3       1 <0>         0.1128
     27 C27        -2.7865   -1.8644    2.1628 C.3       1 <0>         0.0786
     28 C28        -5.5432   -3.0384   -0.1771 C.3       1 <0>         0.0744
     29 C29        -3.9969   -0.1898    3.6979 C.3       1 <0>        -0.0678
     30 C30         0.4555    0.7445   -1.3388 C.3       1 <0>         0.1065
     31 N1         -0.4979   -2.7598    1.9615 N.am      1 <0>        -0.4315
     32 N2          7.2767   -1.9679   -2.5976 N.pl3     1 <0>        -0.8671
     33 N3          5.6472   -2.4923   -4.2783 N.pl3     1 <0>        -0.8581
     34 N4          0.4455    0.1980   -0.0008 N.am      1 <0>        -0.5687
     35 N5         -3.9799   -2.3853    1.5634 N.am      1 <0>        -0.5746
     36 N6          4.9906   -1.1661   -2.3638 N.pl3     1 <0>        -0.7533
     37 O1         -0.5362   -1.8555   -0.4928 O.2       1 <0>        -0.5843
     38 O2         -2.2998   -4.1783    2.3409 O.2       1 <0>        -0.6812
     39 O3         -3.3708   -2.0954   -0.6616 O.2       1 <0>        -0.5788
     40 O4         -7.3435    2.8004    1.6543 O.3       1 <0>        -0.4938
     41 O5          0.9879   -6.5072   -0.1510 O.3       1 <0>        -0.6030
     42 O6         -1.7287    1.6906   -0.9186 O.3       1 <0>        -0.5860
     43 O7         -5.3363   -4.2353   -0.9135 O.3       1 <0>        -0.6021
     44 H1         -8.4746   -1.4364    0.5079 H         1 <0>         0.1412
     45 H2         -4.7810    0.1784   -1.0117 H         1 <0>         0.1451
     46 H3         -8.9153    0.6853    1.6869 H         1 <0>         0.1336
     47 H4         -5.2250    2.2997    0.1686 H         1 <0>         0.1567
     48 H5          3.5627   -2.8549    0.7003 H         1 <0>         0.0649
     49 H6          2.0259   -2.5829   -0.0837 H         1 <0>         0.0476
     50 H7          2.8567   -4.7427   -0.7790 H         1 <0>         0.0641
     51 H8          3.1032   -5.2618    0.8729 H         1 <0>         0.0484
     52 H9          2.1569   -0.7868    1.7257 H         1 <0>         0.0596
     53 H10         1.5124   -1.2395    3.3116 H         1 <0>         0.0757
     54 H11         1.0921   -5.7802    2.3299 H         1 <0>         0.0782
     55 H12        -0.5175   -5.5090    1.7393 H         1 <0>         0.0812
     56 H13        -0.5378   -0.6778    2.3126 H         1 <0>         0.0731
     57 H14         2.6304   -3.2407    2.8169 H         1 <0>         0.0511
     58 H15         0.4523   -3.8218    3.4319 H         1 <0>         0.0753
     59 H16         0.3841   -4.5700   -0.3844 H         1 <0>         0.0427
     60 H17        -6.0375    0.3284    3.1563 H         1 <0>         0.0450
     61 H18        -5.8542   -1.3328    3.7128 H         1 <0>         0.0406
     62 H19        -5.2988   -0.8789    2.0908 H         1 <0>         0.0274
     63 H20        -3.3028    0.8425    1.9049 H         1 <0>         0.0476
     64 H21        -4.1178    1.8926    3.0773 H         1 <0>         0.0170
     65 H22        -2.4708    1.3315    3.3922 H         1 <0>         0.0477
     66 H23        -5.7806   -1.8391   -1.9695 H         1 <0>         0.0814
     67 H24        -7.2926   -2.4771   -1.3579 H         1 <0>         0.0685
     68 H25         3.2637    0.7519   -1.6883 H         1 <0>         0.1016
     69 H26         2.8542   -0.7324   -0.8340 H         1 <0>         0.0660
     70 H27         0.9126   -1.0986   -2.3693 H         1 <0>         0.0512
     71 H28         1.3348    0.3408   -3.2751 H         1 <0>         0.0454
     72 H29        -2.0302   -1.0518    4.0061 H         1 <0>         0.0575
     73 H30        -3.3514   -2.1846    4.2177 H         1 <0>         0.0743
     74 H31         3.6213   -0.5411   -3.7968 H         1 <0>         0.0662
     75 H32         3.2008   -2.0392   -2.9543 H         1 <0>         0.0622
     76 H33        -1.4861   -0.0829   -1.9233 H         1 <0>         0.0321
     77 H34        -1.0136    1.3790   -2.8073 H         1 <0>         0.0204
     78 H35        -2.3647   -1.1082    1.5019 H         1 <0>         0.0749
     79 H36        -6.0846   -3.2900    0.7426 H         1 <0>         0.0719
     80 H37        -4.1195    0.0762    4.7551 H         1 <0>         0.0609
     81 H38         0.9010    1.7469   -1.2960 H         1 <0>         0.1063
     82 H39         7.5616   -1.5307   -1.7253 H         1 <0>         0.4792
     83 H40         7.9876   -2.4801   -3.1146 H         1 <0>         0.4819
     84 H41         4.7045   -2.4434   -4.6571 H         1 <0>         0.4802
     85 H42         6.3424   -3.0107   -4.8098 H         1 <0>         0.4826
     86 H43         0.8216    0.7626    0.7549 H         1 <0>         0.3101
     87 H44        -4.7231   -2.7191    2.1790 H         1 <0>         0.3087
     88 H45         5.2862   -0.7291   -1.4825 H         1 <0>         0.4846
     89 H46        -7.8291    2.6330    2.4777 H         1 <0>         0.4194
     90 H47         1.8515   -6.8926    0.0654 H         1 <0>         0.4036
     91 H48        -1.9874    1.1133   -0.1822 H         1 <0>         0.4114
     92 H49        -5.9568   -4.2165   -1.6604 H         1 <0>         0.3944
@<TRIPOS>BOND
     1    1    3 ar
     2    1    5 ar
     3    2    4 ar
     4    2    5 ar
     5    3    6 ar
     6    4    6 ar
     7    5   21 1
     8    6   40 1
     9    7   15 1
    10    7   34 am
    11    7   37 2
    12    8   27 1
    13    8   31 am
    14    8   38 2
    15    9   28 1
    16    9   35 am
    17    9   39 2
    18   10   32 1
    19   10   33 1
    20   10   36 1
    21   11   12 1
    22   11   16 1
    23   12   18 1
    24   13   15 1
    25   13   16 1
    26   14   17 1
    27   14   18 1
    28   15   31 1
    29   16   17 1
    30   17   31 1
    31   18   41 1
    32   19   29 1
    33   20   29 1
    34   21   28 1
    35   22   23 1
    36   22   25 1
    37   23   30 1
    38   24   27 1
    39   24   29 1
    40   25   36 1
    41   26   30 1
    42   26   42 1
    43   27   35 1
    44   28   43 1
    45   30   34 1
    46    1   44 1
    47    2   45 1
    48    3   46 1
    49    4   47 1
    50   11   48 1
    51   11   49 1
    52   12   50 1
    53   12   51 1
    54   13   52 1
    55   13   53 1
    56   14   54 1
    57   14   55 1
    58   15   56 1
    59   16   57 1
    60   17   58 1
    61   18   59 1
    62   19   60 1
    63   19   61 1
    64   19   62 1
    65   20   63 1
    66   20   64 1
    67   20   65 1
    68   21   66 1
    69   21   67 1
    70   22   68 1
    71   22   69 1
    72   23   70 1
    73   23   71 1
    74   24   72 1
    75   24   73 1
    76   25   74 1
    77   25   75 1
    78   26   76 1
    79   26   77 1
    80   27   78 1
    81   28   79 1
    82   29   80 1
    83   30   81 1
    84   32   82 1
    85   32   83 1
    86   33   84 1
    87   33   85 1
    88   34   86 1
    89   35   87 1
    90   36   88 1
    91   40   89 1
    92   41   90 1
    93   42   91 1
    94   43   92 1
@<TRIPOS>MOLECULE
1a2c_ligand_48
   92    94     0     0     0
SMALL
USER_CHARGES

mmff94s_NoEstat = 107.73
@<TRIPOS>ATOM
      1 C1         -8.1123   -5.1215    0.2464 C.ar      1 <0>        -0.0708
      2 C2         -6.5169   -6.0095   -1.3358 C.ar      1 <0>        -0.0872
      3 C3         -9.1310   -5.8431   -0.3759 C.ar      1 <0>        -0.2241
      4 C4         -7.5356   -6.7311   -1.9580 C.ar      1 <0>        -0.1600
      5 C5         -6.8190   -5.2144   -0.2419 C.ar      1 <0>        -0.1356
      6 C6         -8.8427   -6.6480   -1.4781 C.ar      1 <0>         0.1290
      7 C7         -0.0512   -1.0561    0.2993 C.2       1 <0>         0.6664
      8 C8         -1.8469   -3.0457    2.1630 C.2       1 <0>         0.6651
      9 C9         -4.1811   -2.4610    0.1870 C.2       1 <0>         0.6454
     10 C10         0.1087    6.2839    0.0320 C.cat     1 <0>         0.6349
     11 C11         2.5186   -3.1911    0.6823 C.3       1 <0>        -0.0642
     12 C12         2.4580   -4.6414    0.2376 C.3       1 <0>        -0.0747
     13 C13         1.4874   -1.4827    2.2418 C.3       1 <0>        -0.0873
     14 C14         0.4946   -5.0934    1.7133 C.3       1 <0>        -0.1371
     15 C15         0.0412   -1.4176    1.7503 C.3       1 <0>         0.0360
     16 C16         1.8865   -2.9529    2.0632 C.3       1 <0>        -0.0720
     17 C17         0.5665   -3.7001    2.3454 C.3       1 <0>         0.1201
     18 C18         1.0248   -5.1525    0.2868 C.3       1 <0>         0.1453
     19 C19        -5.3726   -0.5418    3.1302 C.3       1 <0>        -0.0968
     20 C20        -3.4397    1.0389    2.9738 C.3       1 <0>        -0.0986
     21 C21        -5.7160   -4.4337    0.4322 C.3       1 <0>        -0.0191
     22 C22        -1.0374    2.7415   -0.6235 C.3       1 <0>        -0.1009
     23 C23         0.2513    2.2726   -1.3090 C.3       1 <0>        -0.0942
     24 C24        -2.9973   -1.3585    3.5851 C.3       1 <0>        -0.0988
     25 C25        -1.1758    4.2607   -0.6924 C.3       1 <0>         0.1966
     26 C26         1.7383    0.3016   -2.0469 C.3       1 <0>         0.1128
     27 C27        -2.7865   -1.8644    2.1628 C.3       1 <0>         0.0786
     28 C28        -5.5432   -3.0384   -0.1771 C.3       1 <0>         0.0744
     29 C29        -3.9969   -0.1898    3.6979 C.3       1 <0>        -0.0678
     30 C30         0.4555    0.7445   -1.3388 C.3       1 <0>         0.1065
     31 N1         -0.4979   -2.7598    1.9615 N.am      1 <0>        -0.4315
     32 N2          1.2089    6.8461    0.6711 N.pl3     1 <0>        -0.8671
     33 N3         -0.8437    7.1205   -0.5399 N.pl3     1 <0>        -0.8581
     34 N4          0.4455    0.1980   -0.0008 N.am      1 <0>        -0.5687
     35 N5         -3.9799   -2.3853    1.5634 N.am      1 <0>        -0.5746
     36 N6         -0.0506    4.8893   -0.0421 N.pl3     1 <0>        -0.7533
     37 O1         -0.5362   -1.8555   -0.4928 O.2       1 <0>        -0.5843
     38 O2         -2.2998   -4.1783    2.3409 O.2       1 <0>        -0.6812
     39 O3         -3.3708   -2.0954   -0.6616 O.2       1 <0>        -0.5788
     40 O4         -9.8364   -7.3534   -2.0842 O.3       1 <0>        -0.4938
     41 O5          0.9879   -6.5072   -0.1510 O.3       1 <0>        -0.6030
     42 O6          1.7296    0.7591   -3.3929 O.3       1 <0>        -0.5860
     43 O7         -6.5451   -2.1786    0.3468 O.3       1 <0>        -0.6021
     44 H1         -8.3466   -4.4971    1.1042 H         1 <0>         0.1412
     45 H2         -5.5013   -6.0806   -1.7164 H         1 <0>         0.1451
     46 H3        -10.1470   -5.7743    0.0027 H         1 <0>         0.1336
     47 H4         -7.3045   -7.3572   -2.8158 H         1 <0>         0.1567
     48 H5          3.5627   -2.8549    0.7003 H         1 <0>         0.0649
     49 H6          2.0259   -2.5829   -0.0837 H         1 <0>         0.0476
     50 H7          2.8567   -4.7427   -0.7790 H         1 <0>         0.0641
     51 H8          3.1032   -5.2618    0.8729 H         1 <0>         0.0484
     52 H9          2.1569   -0.7868    1.7257 H         1 <0>         0.0596
     53 H10         1.5124   -1.2395    3.3116 H         1 <0>         0.0757
     54 H11         1.0921   -5.7802    2.3299 H         1 <0>         0.0782
     55 H12        -0.5175   -5.5090    1.7393 H         1 <0>         0.0812
     56 H13        -0.5378   -0.6778    2.3126 H         1 <0>         0.0731
     57 H14         2.6304   -3.2407    2.8169 H         1 <0>         0.0511
     58 H15         0.4523   -3.8218    3.4319 H         1 <0>         0.0753
     59 H16         0.3841   -4.5700   -0.3844 H         1 <0>         0.0427
     60 H17        -6.0375    0.3284    3.1563 H         1 <0>         0.0450
     61 H18        -5.8542   -1.3328    3.7128 H         1 <0>         0.0406
     62 H19        -5.2988   -0.8789    2.0908 H         1 <0>         0.0274
     63 H20        -3.3028    0.8425    1.9049 H         1 <0>         0.0476
     64 H21        -4.1178    1.8926    3.0773 H         1 <0>         0.0170
     65 H22        -2.4708    1.3315    3.3922 H         1 <0>         0.0477
     66 H23        -4.7767   -4.9973    0.3545 H         1 <0>         0.0814
     67 H24        -5.9411   -4.3740    1.5044 H         1 <0>         0.0685
     68 H25        -1.9092    2.2808   -1.1025 H         1 <0>         0.1016
     69 H26        -1.0467    2.4234    0.4259 H         1 <0>         0.0660
     70 H27         1.1110    2.7323   -0.8028 H         1 <0>         0.0512
     71 H28         0.2685    2.6560   -2.3373 H         1 <0>         0.0454
     72 H29        -2.0302   -1.0518    4.0061 H         1 <0>         0.0575
     73 H30        -3.3514   -2.1846    4.2177 H         1 <0>         0.0743
     74 H31        -2.0997    4.5809   -0.1994 H         1 <0>         0.0662
     75 H32        -1.2190    4.5954   -1.7340 H         1 <0>         0.0622
     76 H33         1.8500   -0.7877   -2.0488 H         1 <0>         0.0321
     77 H34         2.6170    0.7313   -1.5524 H         1 <0>         0.0204
     78 H35        -2.3647   -1.1082    1.5019 H         1 <0>         0.0749
     79 H36        -5.6447   -3.0594   -1.2687 H         1 <0>         0.0719
     80 H37        -4.1195    0.0762    4.7551 H         1 <0>         0.0609
     81 H38        -0.3978    0.3245   -1.8868 H         1 <0>         0.1063
     82 H39         1.9287    6.2742    1.1048 H         1 <0>         0.4792
     83 H40         1.3225    7.8557    0.7245 H         1 <0>         0.4819
     84 H41        -1.6601    6.7429   -1.0146 H         1 <0>         0.4802
     85 H42        -0.7481    8.1323   -0.4992 H         1 <0>         0.4826
     86 H43         0.8216    0.7626    0.7549 H         1 <0>         0.3101
     87 H44        -4.7231   -2.7191    2.1790 H         1 <0>         0.3087
     88 H45         0.6822    4.3187    0.3968 H         1 <0>         0.4846
     89 H46       -10.6756   -6.8692   -2.0272 H         1 <0>         0.4194
     90 H47         1.8515   -6.8926    0.0654 H         1 <0>         0.4036
     91 H48         1.1820    0.1356   -3.8968 H         1 <0>         0.4114
     92 H49        -7.2229   -2.7477    0.7466 H         1 <0>         0.3944
@<TRIPOS>BOND
     1    1    3 ar
     2    1    5 ar
     3    2    4 ar
     4    2    5 ar
     5    3    6 ar
     6    4    6 ar
     7    5   21 1
     8    6   40 1
     9    7   15 1
    10    7   34 am
    11    7   37 2
    12    8   27 1
    13    8   31 am
    14    8   38 2
    15    9   28 1
    16    9   35 am
    17    9   39 2
    18   10   32 1
    19   10   33 1
    20   10   36 1
    21   11   12 1
    22   11   16 1
    23   12   18 1
    24   13   15 1
    25   13   16 1
    26   14   17 1
    27   14   18 1
    28   15   31 1
    29   16   17 1
    30   17   31 1
    31   18   41 1
    32   19   29 1
    33   20   29 1
    34   21   28 1
    35   22   23 1
    36   22   25 1
    37   23   30 1
    38   24   27 1
    39   24   29 1
    40   25   36 1
    41   26   30 1
    42   26   42 1
    43   27   35 1
    44   28   43 1
    45   30   34 1
    46    1   44 1
    47    2   45 1
    48    3   46 1
    49    4   47 1
    50   11   48 1
    51   11   49 1
    52   12   50 1
    53   12   51 1
    54   13   52 1
    55   13   53 1
    56   14   54 1
    57   14   55 1
    58   15   56 1
    59   16   57 1
    60   17   58 1
    61   18   59 1
    62   19   60 1
    63   19   61 1
    64   19   62 1
    65   20   63 1
    66   20   64 1
    67   20   65 1
    68   21   66 1
    69   21   67 1
    70   22   68 1
    71   22   69 1
    72   23   70 1
    73   23   71 1
    74   24   72 1
    75   24   73 1
    76   25   74 1
    77   25   75 1
    78   26   76 1
    79   26   77 1
    80   27   78 1
    81   28   79 1
    82   29   80 1
    83   30   81 1
    84   32   82 1
    85   32   83 1
    86   33   84 1
    87   33   85 1
    88   34   86 1
    89   35   87 1
    90   36   88 1
    91   40   89 1
    92   41   90 1
    93   42   91 1
    94   43   92 1
@<TRIPOS>MOLECULE
1a2c_ligand_49
   92    94     0     0     0
SMALL
USER_CHARGES

mmff94s_NoEstat = 107.76
@<TRIPOS>ATOM
      1 C1         -7.7594   -0.6221    0.4299 C.ar      1 <0>        -0.0708
      2 C2         -5.6879    0.2837   -0.4219 C.ar      1 <0>        -0.0872
      3 C3         -8.0094    0.5771    1.0970 C.ar      1 <0>        -0.2241
      4 C4         -5.9379    1.4829    0.2452 C.ar      1 <0>        -0.1600
      5 C5         -6.6020   -0.7527   -0.3206 C.ar      1 <0>        -0.1356
      6 C6         -7.0987    1.6297    1.0046 C.ar      1 <0>         0.1290
      7 C7         -0.0512   -1.0561    0.2993 C.2       1 <0>         0.6664
      8 C8         -1.8469   -3.0457    2.1630 C.2       1 <0>         0.6651
      9 C9         -4.1811   -2.4610    0.1870 C.2       1 <0>         0.6454
     10 C10        -1.1899    6.6671    0.2562 C.cat     1 <0>         0.6349
     11 C11         2.5186   -3.1911    0.6823 C.3       1 <0>        -0.0642
     12 C12         2.4580   -4.6414    0.2376 C.3       1 <0>        -0.0747
     13 C13         1.4874   -1.4827    2.2418 C.3       1 <0>        -0.0873
     14 C14         0.4946   -5.0934    1.7133 C.3       1 <0>        -0.1371
     15 C15         0.0412   -1.4176    1.7503 C.3       1 <0>         0.0360
     16 C16         1.8865   -2.9529    2.0632 C.3       1 <0>        -0.0720
     17 C17         0.5665   -3.7001    2.3454 C.3       1 <0>         0.1201
     18 C18         1.0248   -5.1525    0.2868 C.3       1 <0>         0.1453
     19 C19        -5.3726   -0.5418    3.1302 C.3       1 <0>        -0.0968
     20 C20        -3.4397    1.0389    2.9738 C.3       1 <0>        -0.0986
     21 C21        -6.3317   -2.0507   -1.0434 C.3       1 <0>        -0.0191
     22 C22         0.0133    3.1737   -0.5440 C.3       1 <0>        -0.1009
     23 C23        -0.4337    2.0012   -1.4250 C.3       1 <0>        -0.0942
     24 C24        -2.9973   -1.3585    3.5851 C.3       1 <0>        -0.0988
     25 C25        -0.9571    4.3475   -0.6564 C.3       1 <0>         0.1966
     26 C26         1.9058    0.9774   -1.7696 C.3       1 <0>         0.1128
     27 C27        -2.7865   -1.8644    2.1628 C.3       1 <0>         0.0786
     28 C28        -5.5432   -3.0384   -0.1771 C.3       1 <0>         0.0744
     29 C29        -3.9969   -0.1898    3.6979 C.3       1 <0>        -0.0678
     30 C30         0.4555    0.7445   -1.3388 C.3       1 <0>         0.1065
     31 N1         -0.4979   -2.7598    1.9615 N.am      1 <0>        -0.4315
     32 N2         -0.7222    7.6923    1.0718 N.pl3     1 <0>        -0.8671
     33 N3         -2.3492    6.8663   -0.4857 N.pl3     1 <0>        -0.8581
     34 N4          0.4455    0.1980   -0.0008 N.am      1 <0>        -0.5687
     35 N5         -3.9799   -2.3853    1.5634 N.am      1 <0>        -0.5746
     36 N6         -0.5089    5.4402    0.1737 N.pl3     1 <0>        -0.7533
     37 O1         -0.5362   -1.8555   -0.4928 O.2       1 <0>        -0.5843
     38 O2         -2.2998   -4.1783    2.3409 O.2       1 <0>        -0.6812
     39 O3         -3.3708   -2.0954   -0.6616 O.2       1 <0>        -0.5788
     40 O4         -7.3435    2.8004    1.6543 O.3       1 <0>        -0.4938
     41 O5          0.9879   -6.5072   -0.1510 O.3       1 <0>        -0.6030
     42 O6          2.6391   -0.2366   -1.6731 O.3       1 <0>        -0.5860
     43 O7         -5.3363   -4.2353   -0.9135 O.3       1 <0>        -0.6021
     44 H1         -8.4746   -1.4364    0.5079 H         1 <0>         0.1412
     45 H2         -4.7810    0.1784   -1.0117 H         1 <0>         0.1451
     46 H3         -8.9153    0.6853    1.6869 H         1 <0>         0.1336
     47 H4         -5.2250    2.2997    0.1686 H         1 <0>         0.1567
     48 H5          3.5627   -2.8549    0.7003 H         1 <0>         0.0649
     49 H6          2.0259   -2.5829   -0.0837 H         1 <0>         0.0476
     50 H7          2.8567   -4.7427   -0.7790 H         1 <0>         0.0641
     51 H8          3.1032   -5.2618    0.8729 H         1 <0>         0.0484
     52 H9          2.1569   -0.7868    1.7257 H         1 <0>         0.0596
     53 H10         1.5124   -1.2395    3.3116 H         1 <0>         0.0757
     54 H11         1.0921   -5.7802    2.3299 H         1 <0>         0.0782
     55 H12        -0.5175   -5.5090    1.7393 H         1 <0>         0.0812
     56 H13        -0.5378   -0.6778    2.3126 H         1 <0>         0.0731
     57 H14         2.6304   -3.2407    2.8169 H         1 <0>         0.0511
     58 H15         0.4523   -3.8218    3.4319 H         1 <0>         0.0753
     59 H16         0.3841   -4.5700   -0.3844 H         1 <0>         0.0427
     60 H17        -6.0375    0.3284    3.1563 H         1 <0>         0.0450
     61 H18        -5.8542   -1.3328    3.7128 H         1 <0>         0.0406
     62 H19        -5.2988   -0.8789    2.0908 H         1 <0>         0.0274
     63 H20        -3.3028    0.8425    1.9049 H         1 <0>         0.0476
     64 H21        -4.1178    1.8926    3.0773 H         1 <0>         0.0170
     65 H22        -2.4708    1.3315    3.3922 H         1 <0>         0.0477
     66 H23        -5.7806   -1.8391   -1.9695 H         1 <0>         0.0814
     67 H24        -7.2926   -2.4771   -1.3579 H         1 <0>         0.0685
     68 H25         0.0724    2.8576    0.5040 H         1 <0>         0.1016
     69 H26         1.0181    3.5045   -0.8331 H         1 <0>         0.0660
     70 H27        -0.4694    2.3356   -2.4708 H         1 <0>         0.0512
     71 H28        -1.4639    1.7294   -1.1616 H         1 <0>         0.0454
     72 H29        -2.0302   -1.0518    4.0061 H         1 <0>         0.0575
     73 H30        -3.3514   -2.1846    4.2177 H         1 <0>         0.0743
     74 H31        -1.9599    4.0433   -0.3383 H         1 <0>         0.0662
     75 H32        -1.0251    4.6914   -1.6936 H         1 <0>         0.0622
     76 H33         2.4001    1.7344   -1.1517 H         1 <0>         0.0321
     77 H34         1.9468    1.3120   -2.8125 H         1 <0>         0.0204
     78 H35        -2.3647   -1.1082    1.5019 H         1 <0>         0.0749
     79 H36        -6.0846   -3.2900    0.7426 H         1 <0>         0.0719
     80 H37        -4.1195    0.0762    4.7551 H         1 <0>         0.0609
     81 H38         0.0149    0.0012   -2.0158 H         1 <0>         0.1063
     82 H39         0.1191    7.5912    1.6332 H         1 <0>         0.4792
     83 H40        -1.2165    8.5796    1.1310 H         1 <0>         0.4819
     84 H41        -2.7189    6.1381   -1.0919 H         1 <0>         0.4802
     85 H42        -2.8574    7.7464   -0.4423 H         1 <0>         0.4826
     86 H43         0.8216    0.7626    0.7549 H         1 <0>         0.3101
     87 H44        -4.7231   -2.7191    2.1790 H         1 <0>         0.3087
     88 H45         0.3414    5.3470    0.7425 H         1 <0>         0.4846
     89 H46        -7.8291    2.6330    2.4777 H         1 <0>         0.4194
     90 H47         1.8515   -6.8926    0.0654 H         1 <0>         0.4036
     91 H48         2.8853   -0.3414   -0.7399 H         1 <0>         0.4114
     92 H49        -5.9568   -4.2165   -1.6604 H         1 <0>         0.3944
@<TRIPOS>BOND
     1    1    3 ar
     2    1    5 ar
     3    2    4 ar
     4    2    5 ar
     5    3    6 ar
     6    4    6 ar
     7    5   21 1
     8    6   40 1
     9    7   15 1
    10    7   34 am
    11    7   37 2
    12    8   27 1
    13    8   31 am
    14    8   38 2
    15    9   28 1
    16    9   35 am
    17    9   39 2
    18   10   32 1
    19   10   33 1
    20   10   36 1
    21   11   12 1
    22   11   16 1
    23   12   18 1
    24   13   15 1
    25   13   16 1
    26   14   17 1
    27   14   18 1
    28   15   31 1
    29   16   17 1
    30   17   31 1
    31   18   41 1
    32   19   29 1
    33   20   29 1
    34   21   28 1
    35   22   23 1
    36   22   25 1
    37   23   30 1
    38   24   27 1
    39   24   29 1
    40   25   36 1
    41   26   30 1
    42   26   42 1
    43   27   35 1
    44   28   43 1
    45   30   34 1
    46    1   44 1
    47    2   45 1
    48    3   46 1
    49    4   47 1
    50   11   48 1
    51   11   49 1
    52   12   50 1
    53   12   51 1
    54   13   52 1
    55   13   53 1
    56   14   54 1
    57   14   55 1
    58   15   56 1
    59   16   57 1
    60   17   58 1
    61   18   59 1
    62   19   60 1
    63   19   61 1
    64   19   62 1
    65   20   63 1
    66   20   64 1
    67   20   65 1
    68   21   66 1
    69   21   67 1
    70   22   68 1
    71   22   69 1
    72   23   70 1
    73   23   71 1
    74   24   72 1
    75   24   73 1
    76   25   74 1
    77   25   75 1
    78   26   76 1
    79   26   77 1
    80   27   78 1
    81   28   79 1
    82   29   80 1
    83   30   81 1
    84   32   82 1
    85   32   83 1
    86   33   84 1
    87   33   85 1
    88   34   86 1
    89   35   87 1
    90   36   88 1
    91   40   89 1
    92   41   90 1
    93   42   91 1
    94   43   92 1
@<TRIPOS>MOLECULE
1a2c_ligand_50
   92    94     0     0     0
SMALL
USER_CHARGES

mmff94s_NoEstat = 107.78
@<TRIPOS>ATOM
      1 C1         -8.6891   -1.0874    0.2432 C.ar      1 <0>        -0.0708
      2 C2         -6.8597    0.4829    0.0867 C.ar      1 <0>        -0.0872
      3 C3         -9.4297   -0.1524    0.9664 C.ar      1 <0>        -0.2241
      4 C4         -7.6003    1.4179    0.8099 C.ar      1 <0>        -0.1600
      5 C5         -7.4141   -0.7571   -0.1870 C.ar      1 <0>        -0.1356
      6 C6         -8.8853    1.1002    1.2498 C.ar      1 <0>         0.1290
      7 C7         -0.0512   -1.0561    0.2993 C.2       1 <0>         0.6664
      8 C8         -1.8469   -3.0457    2.1630 C.2       1 <0>         0.6651
      9 C9         -4.4743   -1.9575    0.3333 C.2       1 <0>         0.6454
     10 C10        -3.3611    4.6327   -3.0349 C.cat     1 <0>         0.6349
     11 C11         2.5186   -3.1911    0.6823 C.3       1 <0>        -0.0642
     12 C12         2.4580   -4.6414    0.2376 C.3       1 <0>        -0.0747
     13 C13         1.4874   -1.4827    2.2418 C.3       1 <0>        -0.0873
     14 C14         0.4946   -5.0934    1.7133 C.3       1 <0>        -0.1371
     15 C15         0.0412   -1.4176    1.7503 C.3       1 <0>         0.0360
     16 C16         1.8865   -2.9529    2.0632 C.3       1 <0>        -0.0720
     17 C17         0.5665   -3.7001    2.3454 C.3       1 <0>         0.1201
     18 C18         1.0248   -5.1525    0.2868 C.3       1 <0>         0.1453
     19 C19        -5.3726   -0.5418    3.1302 C.3       1 <0>        -0.0968
     20 C20        -3.4397    1.0389    2.9738 C.3       1 <0>        -0.0986
     21 C21        -6.6126   -1.7691   -0.9705 C.3       1 <0>        -0.0191
     22 C22        -1.8968    1.7896   -1.0188 C.3       1 <0>        -0.1009
     23 C23        -0.4337    2.0012   -1.4250 C.3       1 <0>        -0.0942
     24 C24        -2.9973   -1.3585    3.5851 C.3       1 <0>        -0.0988
     25 C25        -2.7062    3.0733   -1.1890 C.3       1 <0>         0.1966
     26 C26         1.9058    0.9774   -1.7696 C.3       1 <0>         0.1128
     27 C27        -2.7865   -1.8644    2.1628 C.3       1 <0>         0.0786
     28 C28        -5.7663   -2.6636   -0.0588 C.3       1 <0>         0.0744
     29 C29        -3.9969   -0.1898    3.6979 C.3       1 <0>        -0.0678
     30 C30         0.4555    0.7445   -1.3388 C.3       1 <0>         0.1065
     31 N1         -0.4979   -2.7598    1.9615 N.am      1 <0>        -0.4315
     32 N2         -3.3082    5.0008   -4.3753 N.pl3     1 <0>        -0.8671
     33 N3         -4.0986    5.4088   -2.1474 N.pl3     1 <0>        -0.8581
     34 N4          0.4455    0.1980   -0.0008 N.am      1 <0>        -0.5687
     35 N5         -3.9799   -2.3853    1.5634 N.am      1 <0>        -0.5746
     36 N6         -2.6823    3.4930   -2.5701 N.pl3     1 <0>        -0.7533
     37 O1         -0.5362   -1.8555   -0.4928 O.2       1 <0>        -0.5843
     38 O2         -2.2998   -4.1783    2.3409 O.2       1 <0>        -0.6812
     39 O3         -3.9527   -1.0962   -0.3713 O.2       1 <0>        -0.5788
     40 O4         -9.6087    2.0131    1.9541 O.3       1 <0>        -0.4938
     41 O5          0.9879   -6.5072   -0.1510 O.3       1 <0>        -0.6030
     42 O6          2.5087    1.9525   -0.9290 O.3       1 <0>        -0.5860
     43 O7         -5.4285   -3.8509   -0.7614 O.3       1 <0>        -0.6021
     44 H1         -9.1215   -2.0606    0.0275 H         1 <0>         0.1412
     45 H2         -5.8593    0.7393   -0.2523 H         1 <0>         0.1451
     46 H3        -10.4301   -0.4058    1.3062 H         1 <0>         0.1336
     47 H4         -7.1710    2.3925    1.0267 H         1 <0>         0.1567
     48 H5          3.5627   -2.8549    0.7003 H         1 <0>         0.0649
     49 H6          2.0259   -2.5829   -0.0837 H         1 <0>         0.0476
     50 H7          2.8567   -4.7427   -0.7790 H         1 <0>         0.0641
     51 H8          3.1032   -5.2618    0.8729 H         1 <0>         0.0484
     52 H9          2.1569   -0.7868    1.7257 H         1 <0>         0.0596
     53 H10         1.5124   -1.2395    3.3116 H         1 <0>         0.0757
     54 H11         1.0921   -5.7802    2.3299 H         1 <0>         0.0782
     55 H12        -0.5175   -5.5090    1.7393 H         1 <0>         0.0812
     56 H13        -0.5378   -0.6778    2.3126 H         1 <0>         0.0731
     57 H14         2.6304   -3.2407    2.8169 H         1 <0>         0.0511
     58 H15         0.4523   -3.8218    3.4319 H         1 <0>         0.0753
     59 H16         0.3841   -4.5700   -0.3844 H         1 <0>         0.0427
     60 H17        -6.0375    0.3284    3.1563 H         1 <0>         0.0450
     61 H18        -5.8542   -1.3328    3.7128 H         1 <0>         0.0406
     62 H19        -5.2988   -0.8789    2.0908 H         1 <0>         0.0274
     63 H20        -3.3028    0.8425    1.9049 H         1 <0>         0.0476
     64 H21        -4.1178    1.8926    3.0773 H         1 <0>         0.0170
     65 H22        -2.4708    1.3315    3.3922 H         1 <0>         0.0477
     66 H23        -5.9666   -1.2415   -1.6850 H         1 <0>         0.0814
     67 H24        -7.3067   -2.3638   -1.5776 H         1 <0>         0.0685
     68 H25        -2.3478    0.9988   -1.6296 H         1 <0>         0.1016
     69 H26        -1.9571    1.4582    0.0248 H         1 <0>         0.0660
     70 H27         0.0021    2.7844   -0.7898 H         1 <0>         0.0512
     71 H28        -0.4008    2.3932   -2.4497 H         1 <0>         0.0454
     72 H29        -2.0302   -1.0518    4.0061 H         1 <0>         0.0575
     73 H30        -3.3514   -2.1846    4.2177 H         1 <0>         0.0743
     74 H31        -2.2897    3.8707   -0.5646 H         1 <0>         0.0662
     75 H32        -3.7451    2.9157   -0.8815 H         1 <0>         0.0622
     76 H33         1.9749    1.3199   -2.8074 H         1 <0>         0.0321
     77 H34         2.4858    0.0519   -1.6791 H         1 <0>         0.0204
     78 H35        -2.3647   -1.1082    1.5019 H         1 <0>         0.0749
     79 H36        -6.3120   -2.9453    0.8496 H         1 <0>         0.0719
     80 H37        -4.1195    0.0762    4.7551 H         1 <0>         0.0609
     81 H38         0.0149    0.0012   -2.0158 H         1 <0>         0.1063
     82 H39        -2.7804    4.4652   -5.0593 H         1 <0>         0.4792
     83 H40        -3.7995    5.8263   -4.7102 H         1 <0>         0.4819
     84 H41        -4.1585    5.1685   -1.1609 H         1 <0>         0.4802
     85 H42        -4.5986    6.2369   -2.4619 H         1 <0>         0.4826
     86 H43         0.8216    0.7626    0.7549 H         1 <0>         0.3101
     87 H44        -4.4957   -3.1095    2.0656 H         1 <0>         0.3087
     88 H45        -2.1531    2.9563   -3.2681 H         1 <0>         0.4846
     89 H46       -10.1852    1.5647    2.5931 H         1 <0>         0.4194
     90 H47         1.8515   -6.8926    0.0654 H         1 <0>         0.4036
     91 H48         2.2238    2.8203   -1.2580 H         1 <0>         0.4114
     92 H49        -6.0237   -3.9035   -1.5269 H         1 <0>         0.3944
@<TRIPOS>BOND
     1    1    3 ar
     2    1    5 ar
     3    2    4 ar
     4    2    5 ar
     5    3    6 ar
     6    4    6 ar
     7    5   21 1
     8    6   40 1
     9    7   15 1
    10    7   34 am
    11    7   37 2
    12    8   27 1
    13    8   31 am
    14    8   38 2
    15    9   28 1
    16    9   35 am
    17    9   39 2
    18   10   32 1
    19   10   33 1
    20   10   36 1
    21   11   12 1
    22   11   16 1
    23   12   18 1
    24   13   15 1
    25   13   16 1
    26   14   17 1
    27   14   18 1
    28   15   31 1
    29   16   17 1
    30   17   31 1
    31   18   41 1
    32   19   29 1
    33   20   29 1
    34   21   28 1
    35   22   23 1
    36   22   25 1
    37   23   30 1
    38   24   27 1
    39   24   29 1
    40   25   36 1
    41   26   30 1
    42   26   42 1
    43   27   35 1
    44   28   43 1
    45   30   34 1
    46    1   44 1
    47    2   45 1
    48    3   46 1
    49    4   47 1
    50   11   48 1
    51   11   49 1
    52   12   50 1
    53   12   51 1
    54   13   52 1
    55   13   53 1
    56   14   54 1
    57   14   55 1
    58   15   56 1
    59   16   57 1
    60   17   58 1
    61   18   59 1
    62   19   60 1
    63   19   61 1
    64   19   62 1
    65   20   63 1
    66   20   64 1
    67   20   65 1
    68   21   66 1
    69   21   67 1
    70   22   68 1
    71   22   69 1
    72   23   70 1
    73   23   71 1
    74   24   72 1
    75   24   73 1
    76   25   74 1
    77   25   75 1
    78   26   76 1
    79   26   77 1
    80   27   78 1
    81   28   79 1
    82   29   80 1
    83   30   81 1
    84   32   82 1
    85   32   83 1
    86   33   84 1
    87   33   85 1
    88   34   86 1
    89   35   87 1
    90   36   88 1
    91   40   89 1
    92   41   90 1
    93   42   91 1
    94   43   92 1
@<TRIPOS>MOLECULE
1a2c_ligand_51
   92    94     0     0     0
SMALL
USER_CHARGES

mmff94s_NoEstat = 107.79
@<TRIPOS>ATOM
      1 C1         -8.1123   -5.1215    0.2464 C.ar      1 <0>        -0.0708
      2 C2         -6.5169   -6.0095   -1.3358 C.ar      1 <0>        -0.0872
      3 C3         -9.1310   -5.8431   -0.3759 C.ar      1 <0>        -0.2241
      4 C4         -7.5356   -6.7311   -1.9580 C.ar      1 <0>        -0.1600
      5 C5         -6.8190   -5.2144   -0.2419 C.ar      1 <0>        -0.1356
      6 C6         -8.8427   -6.6480   -1.4781 C.ar      1 <0>         0.1290
      7 C7         -0.0512   -1.0561    0.2993 C.2       1 <0>         0.6664
      8 C8         -1.8469   -3.0457    2.1630 C.2       1 <0>         0.6651
      9 C9         -4.1811   -2.4610    0.1870 C.2       1 <0>         0.6454
     10 C10        -0.1924    6.4494   -4.0524 C.cat     1 <0>         0.6349
     11 C11         2.5186   -3.1911    0.6823 C.3       1 <0>        -0.0642
     12 C12         2.4580   -4.6414    0.2376 C.3       1 <0>        -0.0747
     13 C13         1.4874   -1.4827    2.2418 C.3       1 <0>        -0.0873
     14 C14         0.4946   -5.0934    1.7133 C.3       1 <0>        -0.1371
     15 C15         0.0412   -1.4176    1.7503 C.3       1 <0>         0.0360
     16 C16         1.8865   -2.9529    2.0632 C.3       1 <0>        -0.0720
     17 C17         0.5665   -3.7001    2.3454 C.3       1 <0>         0.1201
     18 C18         1.0248   -5.1525    0.2868 C.3       1 <0>         0.1453
     19 C19        -5.3726   -0.5418    3.1302 C.3       1 <0>        -0.0968
     20 C20        -3.4397    1.0389    2.9738 C.3       1 <0>        -0.0986
     21 C21        -5.7160   -4.4337    0.4322 C.3       1 <0>        -0.0191
     22 C22         0.1864    2.9452   -2.6852 C.3       1 <0>        -0.1009
     23 C23         0.2513    2.2726   -1.3090 C.3       1 <0>        -0.0942
     24 C24        -2.9973   -1.3585    3.5851 C.3       1 <0>        -0.0988
     25 C25         0.0377    4.4591   -2.5512 C.3       1 <0>         0.1966
     26 C26         1.7383    0.3016   -2.0469 C.3       1 <0>         0.1128
     27 C27        -2.7865   -1.8644    2.1628 C.3       1 <0>         0.0786
     28 C28        -5.5432   -3.0384   -0.1771 C.3       1 <0>         0.0744
     29 C29        -3.9969   -0.1898    3.6979 C.3       1 <0>        -0.0678
     30 C30         0.4555    0.7445   -1.3388 C.3       1 <0>         0.1065
     31 N1         -0.4979   -2.7598    1.9615 N.am      1 <0>        -0.4315
     32 N2         -0.2513    6.9915   -5.3321 N.pl3     1 <0>        -0.8671
     33 N3         -0.2955    7.2945   -2.9528 N.pl3     1 <0>        -0.8581
     34 N4          0.4455    0.1980   -0.0008 N.am      1 <0>        -0.5687
     35 N5         -3.9799   -2.3853    1.5634 N.am      1 <0>        -0.5746
     36 N6         -0.0310    5.0665   -3.8590 N.pl3     1 <0>        -0.7533
     37 O1         -0.5362   -1.8555   -0.4928 O.2       1 <0>        -0.5843
     38 O2         -2.2998   -4.1783    2.3409 O.2       1 <0>        -0.6812
     39 O3         -3.3708   -2.0954   -0.6616 O.2       1 <0>        -0.5788
     40 O4         -9.8364   -7.3534   -2.0842 O.3       1 <0>        -0.4938
     41 O5          0.9879   -6.5072   -0.1510 O.3       1 <0>        -0.6030
     42 O6          2.8703    0.8436   -1.3793 O.3       1 <0>        -0.5860
     43 O7         -6.5451   -2.1786    0.3468 O.3       1 <0>        -0.6021
     44 H1         -8.3466   -4.4971    1.1042 H         1 <0>         0.1412
     45 H2         -5.5013   -6.0806   -1.7164 H         1 <0>         0.1451
     46 H3        -10.1470   -5.7743    0.0027 H         1 <0>         0.1336
     47 H4         -7.3045   -7.3572   -2.8158 H         1 <0>         0.1567
     48 H5          3.5627   -2.8549    0.7003 H         1 <0>         0.0649
     49 H6          2.0259   -2.5829   -0.0837 H         1 <0>         0.0476
     50 H7          2.8567   -4.7427   -0.7790 H         1 <0>         0.0641
     51 H8          3.1032   -5.2618    0.8729 H         1 <0>         0.0484
     52 H9          2.1569   -0.7868    1.7257 H         1 <0>         0.0596
     53 H10         1.5124   -1.2395    3.3116 H         1 <0>         0.0757
     54 H11         1.0921   -5.7802    2.3299 H         1 <0>         0.0782
     55 H12        -0.5175   -5.5090    1.7393 H         1 <0>         0.0812
     56 H13        -0.5378   -0.6778    2.3126 H         1 <0>         0.0731
     57 H14         2.6304   -3.2407    2.8169 H         1 <0>         0.0511
     58 H15         0.4523   -3.8218    3.4319 H         1 <0>         0.0753
     59 H16         0.3841   -4.5700   -0.3844 H         1 <0>         0.0427
     60 H17        -6.0375    0.3284    3.1563 H         1 <0>         0.0450
     61 H18        -5.8542   -1.3328    3.7128 H         1 <0>         0.0406
     62 H19        -5.2988   -0.8789    2.0908 H         1 <0>         0.0274
     63 H20        -3.3028    0.8425    1.9049 H         1 <0>         0.0476
     64 H21        -4.1178    1.8926    3.0773 H         1 <0>         0.0170
     65 H22        -2.4708    1.3315    3.3922 H         1 <0>         0.0477
     66 H23        -4.7767   -4.9973    0.3545 H         1 <0>         0.0814
     67 H24        -5.9411   -4.3740    1.5044 H         1 <0>         0.0685
     68 H25         1.0953    2.7243   -3.2569 H         1 <0>         0.1016
     69 H26        -0.6566    2.5474   -3.2629 H         1 <0>         0.0660
     70 H27        -0.6751    2.4928   -0.7614 H         1 <0>         0.0512
     71 H28         1.0606    2.7304   -0.7258 H         1 <0>         0.0454
     72 H29        -2.0302   -1.0518    4.0061 H         1 <0>         0.0575
     73 H30        -3.3514   -2.1846    4.2177 H         1 <0>         0.0743
     74 H31         0.8899    4.8778   -2.0056 H         1 <0>         0.0662
     75 H32        -0.8713    4.7077   -1.9937 H         1 <0>         0.0622
     76 H33         1.7614    0.6251   -3.0928 H         1 <0>         0.0321
     77 H34         1.8289   -0.7905   -2.0281 H         1 <0>         0.0204
     78 H35        -2.3647   -1.1082    1.5019 H         1 <0>         0.0749
     79 H36        -5.6447   -3.0594   -1.2687 H         1 <0>         0.0719
     80 H37        -4.1195    0.0762    4.7551 H         1 <0>         0.0609
     81 H38        -0.3978    0.3245   -1.8868 H         1 <0>         0.1063
     82 H39        -0.1784    6.4130   -6.1648 H         1 <0>         0.4792
     83 H40        -0.3675    7.9927   -5.4705 H         1 <0>         0.4819
     84 H41        -0.2564    6.9316   -2.0034 H         1 <0>         0.4802
     85 H42        -0.4140    8.2980   -3.0692 H         1 <0>         0.4826
     86 H43         0.8216    0.7626    0.7549 H         1 <0>         0.3101
     87 H44        -4.7231   -2.7191    2.1790 H         1 <0>         0.3087
     88 H45         0.0398    4.4889   -4.7055 H         1 <0>         0.4846
     89 H46       -10.6756   -6.8692   -2.0272 H         1 <0>         0.4194
     90 H47         1.8515   -6.8926    0.0654 H         1 <0>         0.4036
     91 H48         2.9636    1.7601   -1.6856 H         1 <0>         0.4114
     92 H49        -7.2229   -2.7477    0.7466 H         1 <0>         0.3944
@<TRIPOS>BOND
     1    1    3 ar
     2    1    5 ar
     3    2    4 ar
     4    2    5 ar
     5    3    6 ar
     6    4    6 ar
     7    5   21 1
     8    6   40 1
     9    7   15 1
    10    7   34 am
    11    7   37 2
    12    8   27 1
    13    8   31 am
    14    8   38 2
    15    9   28 1
    16    9   35 am
    17    9   39 2
    18   10   32 1
    19   10   33 1
    20   10   36 1
    21   11   12 1
    22   11   16 1
    23   12   18 1
    24   13   15 1
    25   13   16 1
    26   14   17 1
    27   14   18 1
    28   15   31 1
    29   16   17 1
    30   17   31 1
    31   18   41 1
    32   19   29 1
    33   20   29 1
    34   21   28 1
    35   22   23 1
    36   22   25 1
    37   23   30 1
    38   24   27 1
    39   24   29 1
    40   25   36 1
    41   26   30 1
    42   26   42 1
    43   27   35 1
    44   28   43 1
    45   30   34 1
    46    1   44 1
    47    2   45 1
    48    3   46 1
    49    4   47 1
    50   11   48 1
    51   11   49 1
    52   12   50 1
    53   12   51 1
    54   13   52 1
    55   13   53 1
    56   14   54 1
    57   14   55 1
    58   15   56 1
    59   16   57 1
    60   17   58 1
    61   18   59 1
    62   19   60 1
    63   19   61 1
    64   19   62 1
    65   20   63 1
    66   20   64 1
    67   20   65 1
    68   21   66 1
    69   21   67 1
    70   22   68 1
    71   22   69 1
    72   23   70 1
    73   23   71 1
    74   24   72 1
    75   24   73 1
    76   25   74 1
    77   25   75 1
    78   26   76 1
    79   26   77 1
    80   27   78 1
    81   28   79 1
    82   29   80 1
    83   30   81 1
    84   32   82 1
    85   32   83 1
    86   33   84 1
    87   33   85 1
    88   34   86 1
    89   35   87 1
    90   36   88 1
    91   40   89 1
    92   41   90 1
    93   42   91 1
    94   43   92 1
@<TRIPOS>MOLECULE
1a2c_ligand_52
   92    94     0     0     0
SMALL
USER_CHARGES

mmff94s_NoEstat = 107.86
@<TRIPOS>ATOM
      1 C1         -7.6915   -4.5534   -2.2285 C.ar      1 <0>        -0.0708
      2 C2         -7.8704   -2.1497   -2.3935 C.ar      1 <0>        -0.0872
      3 C3         -9.0245   -4.6794   -2.6196 C.ar      1 <0>        -0.2241
      4 C4         -9.2033   -2.2757   -2.7846 C.ar      1 <0>        -0.1600
      5 C5         -7.1323   -3.2903   -2.1207 C.ar      1 <0>        -0.1356
      6 C6         -9.7804   -3.5406   -2.8977 C.ar      1 <0>         0.1290
      7 C7         -0.0512   -1.0561    0.2993 C.2       1 <0>         0.6664
      8 C8         -1.8469   -3.0457    2.1630 C.2       1 <0>         0.6651
      9 C9         -4.1811   -2.4610    0.1870 C.2       1 <0>         0.6454
     10 C10        -0.9406    0.6782   -6.6110 C.cat     1 <0>         0.6349
     11 C11         2.5186   -3.1911    0.6823 C.3       1 <0>        -0.0642
     12 C12         2.4580   -4.6414    0.2376 C.3       1 <0>        -0.0747
     13 C13         1.4874   -1.4827    2.2418 C.3       1 <0>        -0.0873
     14 C14         0.4946   -5.0934    1.7133 C.3       1 <0>        -0.1371
     15 C15         0.0412   -1.4176    1.7503 C.3       1 <0>         0.0360
     16 C16         1.8865   -2.9529    2.0632 C.3       1 <0>        -0.0720
     17 C17         0.5665   -3.7001    2.3454 C.3       1 <0>         0.1201
     18 C18         1.0248   -5.1525    0.2868 C.3       1 <0>         0.1453
     19 C19        -5.3726   -0.5418    3.1302 C.3       1 <0>        -0.0968
     20 C20        -3.4397    1.0389    2.9738 C.3       1 <0>        -0.0986
     21 C21        -5.6890   -3.1540   -1.6980 C.3       1 <0>        -0.0191
     22 C22        -0.9951    2.0137   -3.0747 C.3       1 <0>        -0.1009
     23 C23        -0.8794    1.4488   -1.6540 C.3       1 <0>        -0.0942
     24 C24        -2.9973   -1.3585    3.5851 C.3       1 <0>        -0.0988
     25 C25        -0.9093    0.9015   -4.1176 C.3       1 <0>         0.1966
     26 C26         1.6856    1.6412   -1.5001 C.3       1 <0>         0.1128
     27 C27        -2.7865   -1.8644    2.1628 C.3       1 <0>         0.0786
     28 C28        -5.5432   -3.0384   -0.1771 C.3       1 <0>         0.0744
     29 C29        -3.9969   -0.1898    3.6979 C.3       1 <0>        -0.0678
     30 C30         0.4555    0.7445   -1.3388 C.3       1 <0>         0.1065
     31 N1         -0.4979   -2.7598    1.9615 N.am      1 <0>        -0.4315
     32 N2         -1.0455    1.2596   -7.8703 N.pl3     1 <0>        -0.8671
     33 N3         -0.7637   -0.6976   -6.5120 N.pl3     1 <0>        -0.8581
     34 N4          0.4455    0.1980   -0.0008 N.am      1 <0>        -0.5687
     35 N5         -3.9799   -2.3853    1.5634 N.am      1 <0>        -0.5746
     36 N6         -1.0107    1.4600   -5.4449 N.pl3     1 <0>        -0.7533
     37 O1         -0.5362   -1.8555   -0.4928 O.2       1 <0>        -0.5843
     38 O2         -2.2998   -4.1783    2.3409 O.2       1 <0>        -0.6812
     39 O3         -3.3708   -2.0954   -0.6616 O.2       1 <0>        -0.5788
     40 O4        -11.0807   -3.6636   -3.2809 O.3       1 <0>        -0.4938
     41 O5          0.9879   -6.5072   -0.1510 O.3       1 <0>        -0.6030
     42 O6          1.5971    2.7470   -0.6113 O.3       1 <0>        -0.5860
     43 O7         -5.6445   -4.3341    0.3961 O.3       1 <0>        -0.6021
     44 H1         -7.1107   -5.4463   -2.0139 H         1 <0>         0.1412
     45 H2         -7.4289   -1.1601   -2.3083 H         1 <0>         0.1451
     46 H3         -9.4682   -5.6674   -2.7060 H         1 <0>         0.1336
     47 H4         -9.7869   -1.3847   -3.0007 H         1 <0>         0.1567
     48 H5          3.5627   -2.8549    0.7003 H         1 <0>         0.0649
     49 H6          2.0259   -2.5829   -0.0837 H         1 <0>         0.0476
     50 H7          2.8567   -4.7427   -0.7790 H         1 <0>         0.0641
     51 H8          3.1032   -5.2618    0.8729 H         1 <0>         0.0484
     52 H9          2.1569   -0.7868    1.7257 H         1 <0>         0.0596
     53 H10         1.5124   -1.2395    3.3116 H         1 <0>         0.0757
     54 H11         1.0921   -5.7802    2.3299 H         1 <0>         0.0782
     55 H12        -0.5175   -5.5090    1.7393 H         1 <0>         0.0812
     56 H13        -0.5378   -0.6778    2.3126 H         1 <0>         0.0731
     57 H14         2.6304   -3.2407    2.8169 H         1 <0>         0.0511
     58 H15         0.4523   -3.8218    3.4319 H         1 <0>         0.0753
     59 H16         0.3841   -4.5700   -0.3844 H         1 <0>         0.0427
     60 H17        -6.0375    0.3284    3.1563 H         1 <0>         0.0450
     61 H18        -5.8542   -1.3328    3.7128 H         1 <0>         0.0406
     62 H19        -5.2988   -0.8789    2.0908 H         1 <0>         0.0274
     63 H20        -3.3028    0.8425    1.9049 H         1 <0>         0.0476
     64 H21        -4.1178    1.8926    3.0773 H         1 <0>         0.0170
     65 H22        -2.4708    1.3315    3.3922 H         1 <0>         0.0477
     66 H23        -5.2527   -2.2721   -2.1860 H         1 <0>         0.0814
     67 H24        -5.1328   -4.0165   -2.0862 H         1 <0>         0.0685
     68 H25        -1.9473    2.5434   -3.1941 H         1 <0>         0.1016
     69 H26        -0.1993    2.7456   -3.2583 H         1 <0>         0.0660
     70 H27        -1.7000    0.7382   -1.4859 H         1 <0>         0.0512
     71 H28        -1.0340    2.2618   -0.9330 H         1 <0>         0.0454
     72 H29        -2.0302   -1.0518    4.0061 H         1 <0>         0.0575
     73 H30        -3.3514   -2.1846    4.2177 H         1 <0>         0.0743
     74 H31        -1.7187    0.1787   -3.9697 H         1 <0>         0.0662
     75 H32         0.0401    0.3636   -4.0280 H         1 <0>         0.0622
     76 H33         1.7842    2.0214   -2.5223 H         1 <0>         0.0321
     77 H34         2.5988    1.0866   -1.2555 H         1 <0>         0.0204
     78 H35        -2.3647   -1.1082    1.5019 H         1 <0>         0.0749
     79 H36        -6.3286   -2.4083    0.2569 H         1 <0>         0.0719
     80 H37        -4.1195    0.0762    4.7551 H         1 <0>         0.0609
     81 H38         0.5463   -0.0881   -2.0483 H         1 <0>         0.1063
     82 H39        -1.1773    2.2602   -7.9911 H         1 <0>         0.4792
     83 H40        -0.9951    0.6924   -8.7134 H         1 <0>         0.4819
     84 H41        -0.6834   -1.1551   -5.6072 H         1 <0>         0.4802
     85 H42        -0.7090   -1.2825   -7.3424 H         1 <0>         0.4826
     86 H43         0.8216    0.7626    0.7549 H         1 <0>         0.3101
     87 H44        -4.7231   -2.7191    2.1790 H         1 <0>         0.3087
     88 H45        -1.1420    2.4704   -5.5758 H         1 <0>         0.4846
     89 H46       -11.4843   -4.4380   -2.8573 H         1 <0>         0.4194
     90 H47         1.8515   -6.8926    0.0654 H         1 <0>         0.4036
     91 H48         1.0115    3.3975   -1.0313 H         1 <0>         0.4114
     92 H49        -6.0303   -4.9121   -0.2823 H         1 <0>         0.3944
@<TRIPOS>BOND
     1    1    3 ar
     2    1    5 ar
     3    2    4 ar
     4    2    5 ar
     5    3    6 ar
     6    4    6 ar
     7    5   21 1
     8    6   40 1
     9    7   15 1
    10    7   34 am
    11    7   37 2
    12    8   27 1
    13    8   31 am
    14    8   38 2
    15    9   28 1
    16    9   35 am
    17    9   39 2
    18   10   32 1
    19   10   33 1
    20   10   36 1
    21   11   12 1
    22   11   16 1
    23   12   18 1
    24   13   15 1
    25   13   16 1
    26   14   17 1
    27   14   18 1
    28   15   31 1
    29   16   17 1
    30   17   31 1
    31   18   41 1
    32   19   29 1
    33   20   29 1
    34   21   28 1
    35   22   23 1
    36   22   25 1
    37   23   30 1
    38   24   27 1
    39   24   29 1
    40   25   36 1
    41   26   30 1
    42   26   42 1
    43   27   35 1
    44   28   43 1
    45   30   34 1
    46    1   44 1
    47    2   45 1
    48    3   46 1
    49    4   47 1
    50   11   48 1
    51   11   49 1
    52   12   50 1
    53   12   51 1
    54   13   52 1
    55   13   53 1
    56   14   54 1
    57   14   55 1
    58   15   56 1
    59   16   57 1
    60   17   58 1
    61   18   59 1
    62   19   60 1
    63   19   61 1
    64   19   62 1
    65   20   63 1
    66   20   64 1
    67   20   65 1
    68   21   66 1
    69   21   67 1
    70   22   68 1
    71   22   69 1
    72   23   70 1
    73   23   71 1
    74   24   72 1
    75   24   73 1
    76   25   74 1
    77   25   75 1
    78   26   76 1
    79   26   77 1
    80   27   78 1
    81   28   79 1
    82   29   80 1
    83   30   81 1
    84   32   82 1
    85   32   83 1
    86   33   84 1
    87   33   85 1
    88   34   86 1
    89   35   87 1
    90   36   88 1
    91   40   89 1
    92   41   90 1
    93   42   91 1
    94   43   92 1
@<TRIPOS>MOLECULE
1a2c_ligand_53
   92    94     0     0     0
SMALL
USER_CHARGES

mmff94s_NoEstat = 107.88
@<TRIPOS>ATOM
      1 C1         -8.6272   -2.8492   -1.4308 C.ar      1 <0>        -0.0708
      2 C2         -8.6280   -2.4747    0.9560 C.ar      1 <0>        -0.0872
      3 C3         -9.9370   -3.3232   -1.3568 C.ar      1 <0>        -0.2241
      4 C4         -9.9377   -2.9488    1.0300 C.ar      1 <0>        -0.1600
      5 C5         -7.9904   -2.4312   -0.2734 C.ar      1 <0>        -0.1356
      6 C6        -10.5923   -3.3731   -0.1264 C.ar      1 <0>         0.1290
      7 C7         -0.0512   -1.0561    0.2993 C.2       1 <0>         0.6664
      8 C8         -1.8469   -3.0457    2.1630 C.2       1 <0>         0.6651
      9 C9         -4.1811   -2.4610    0.1870 C.2       1 <0>         0.6454
     10 C10         2.3484    5.4202   -2.4822 C.cat     1 <0>         0.6349
     11 C11         2.5186   -3.1911    0.6823 C.3       1 <0>        -0.0642
     12 C12         2.4580   -4.6414    0.2376 C.3       1 <0>        -0.0747
     13 C13         1.4874   -1.4827    2.2418 C.3       1 <0>        -0.0873
     14 C14         0.4946   -5.0934    1.7133 C.3       1 <0>        -0.1371
     15 C15         0.0412   -1.4176    1.7503 C.3       1 <0>         0.0360
     16 C16         1.8865   -2.9529    2.0632 C.3       1 <0>        -0.0720
     17 C17         0.5665   -3.7001    2.3454 C.3       1 <0>         0.1201
     18 C18         1.0248   -5.1525    0.2868 C.3       1 <0>         0.1453
     19 C19        -5.3726   -0.5418    3.1302 C.3       1 <0>        -0.0968
     20 C20        -3.4397    1.0389    2.9738 C.3       1 <0>        -0.0986
     21 C21        -6.5727   -1.9173   -0.3536 C.3       1 <0>        -0.0191
     22 C22         0.1864    2.9452   -2.6852 C.3       1 <0>        -0.1009
     23 C23         0.2513    2.2726   -1.3090 C.3       1 <0>        -0.0942
     24 C24        -2.9973   -1.3585    3.5851 C.3       1 <0>        -0.0988
     25 C25         0.0377    4.4591   -2.5512 C.3       1 <0>         0.1966
     26 C26         1.7383    0.3016   -2.0469 C.3       1 <0>         0.1128
     27 C27        -2.7865   -1.8644    2.1628 C.3       1 <0>         0.0786
     28 C28        -5.5432   -3.0384   -0.1771 C.3       1 <0>         0.0744
     29 C29        -3.9969   -0.1898    3.6979 C.3       1 <0>        -0.0678
     30 C30         0.4555    0.7445   -1.3388 C.3       1 <0>         0.1065
     31 N1         -0.4979   -2.7598    1.9615 N.am      1 <0>        -0.4315
     32 N2          3.4133    5.9433   -1.7561 N.pl3     1 <0>        -0.8671
     33 N3          2.4598    5.3087   -3.8639 N.pl3     1 <0>        -0.8581
     34 N4          0.4455    0.1980   -0.0008 N.am      1 <0>        -0.5687
     35 N5         -3.9799   -2.3853    1.5634 N.am      1 <0>        -0.5746
     36 N6          1.1689    5.0055   -1.8399 N.pl3     1 <0>        -0.7533
     37 O1         -0.5362   -1.8555   -0.4928 O.2       1 <0>        -0.5843
     38 O2         -2.2998   -4.1783    2.3409 O.2       1 <0>        -0.6812
     39 O3         -3.3708   -2.0954   -0.6616 O.2       1 <0>        -0.5788
     40 O4        -11.8709   -3.8342   -0.0545 O.3       1 <0>        -0.4938
     41 O5          0.9879   -6.5072   -0.1510 O.3       1 <0>        -0.6030
     42 O6          2.8703    0.8436   -1.3793 O.3       1 <0>        -0.5860
     43 O7         -5.4138   -3.7436   -1.4033 O.3       1 <0>        -0.6021
     44 H1         -8.1249   -2.8142   -2.3937 H         1 <0>         0.1412
     45 H2         -8.1259   -2.1460    1.8623 H         1 <0>         0.1451
     46 H3        -10.4414   -3.6521   -2.2611 H         1 <0>         0.1336
     47 H4        -10.4433   -2.9843    1.9914 H         1 <0>         0.1567
     48 H5          3.5627   -2.8549    0.7003 H         1 <0>         0.0649
     49 H6          2.0259   -2.5829   -0.0837 H         1 <0>         0.0476
     50 H7          2.8567   -4.7427   -0.7790 H         1 <0>         0.0641
     51 H8          3.1032   -5.2618    0.8729 H         1 <0>         0.0484
     52 H9          2.1569   -0.7868    1.7257 H         1 <0>         0.0596
     53 H10         1.5124   -1.2395    3.3116 H         1 <0>         0.0757
     54 H11         1.0921   -5.7802    2.3299 H         1 <0>         0.0782
     55 H12        -0.5175   -5.5090    1.7393 H         1 <0>         0.0812
     56 H13        -0.5378   -0.6778    2.3126 H         1 <0>         0.0731
     57 H14         2.6304   -3.2407    2.8169 H         1 <0>         0.0511
     58 H15         0.4523   -3.8218    3.4319 H         1 <0>         0.0753
     59 H16         0.3841   -4.5700   -0.3844 H         1 <0>         0.0427
     60 H17        -6.0375    0.3284    3.1563 H         1 <0>         0.0450
     61 H18        -5.8542   -1.3328    3.7128 H         1 <0>         0.0406
     62 H19        -5.2988   -0.8789    2.0908 H         1 <0>         0.0274
     63 H20        -3.3028    0.8425    1.9049 H         1 <0>         0.0476
     64 H21        -4.1178    1.8926    3.0773 H         1 <0>         0.0170
     65 H22        -2.4708    1.3315    3.3922 H         1 <0>         0.0477
     66 H23        -6.4251   -1.1465    0.4146 H         1 <0>         0.0814
     67 H24        -6.4443   -1.4079   -1.3169 H         1 <0>         0.0685
     68 H25         1.0953    2.7243   -3.2569 H         1 <0>         0.1016
     69 H26        -0.6566    2.5474   -3.2629 H         1 <0>         0.0660
     70 H27        -0.6751    2.4928   -0.7614 H         1 <0>         0.0512
     71 H28         1.0606    2.7304   -0.7258 H         1 <0>         0.0454
     72 H29        -2.0302   -1.0518    4.0061 H         1 <0>         0.0575
     73 H30        -3.3514   -2.1846    4.2177 H         1 <0>         0.0743
     74 H31        -0.8805    4.7040   -2.0069 H         1 <0>         0.0662
     75 H32        -0.0236    4.9278   -3.5387 H         1 <0>         0.0622
     76 H33         1.7614    0.6251   -3.0928 H         1 <0>         0.0321
     77 H34         1.8289   -0.7905   -2.0281 H         1 <0>         0.0204
     78 H35        -2.3647   -1.1082    1.5019 H         1 <0>         0.0749
     79 H36        -5.8508   -3.7504    0.5980 H         1 <0>         0.0719
     80 H37        -4.1195    0.0762    4.7551 H         1 <0>         0.0609
     81 H38        -0.3978    0.3245   -1.8868 H         1 <0>         0.1063
     82 H39         3.3762    6.0453   -0.7454 H         1 <0>         0.4792
     83 H40         4.2662    6.2435   -2.2224 H         1 <0>         0.4819
     84 H41         1.7005    4.9307   -4.4253 H         1 <0>         0.4802
     85 H42         3.3044    5.6013   -4.3494 H         1 <0>         0.4826
     86 H43         0.8216    0.7626    0.7549 H         1 <0>         0.3101
     87 H44        -4.7231   -2.7191    2.1790 H         1 <0>         0.3087
     88 H45         1.1403    5.1101   -0.8184 H         1 <0>         0.4846
     89 H46       -12.0198   -4.5188   -0.7260 H         1 <0>         0.4194
     90 H47         1.8515   -6.8926    0.0654 H         1 <0>         0.4036
     91 H48         2.9636    1.7601   -1.6856 H         1 <0>         0.4114
     92 H49        -6.1819   -3.5045   -1.9474 H         1 <0>         0.3944
@<TRIPOS>BOND
     1    1    3 ar
     2    1    5 ar
     3    2    4 ar
     4    2    5 ar
     5    3    6 ar
     6    4    6 ar
     7    5   21 1
     8    6   40 1
     9    7   15 1
    10    7   34 am
    11    7   37 2
    12    8   27 1
    13    8   31 am
    14    8   38 2
    15    9   28 1
    16    9   35 am
    17    9   39 2
    18   10   32 1
    19   10   33 1
    20   10   36 1
    21   11   12 1
    22   11   16 1
    23   12   18 1
    24   13   15 1
    25   13   16 1
    26   14   17 1
    27   14   18 1
    28   15   31 1
    29   16   17 1
    30   17   31 1
    31   18   41 1
    32   19   29 1
    33   20   29 1
    34   21   28 1
    35   22   23 1
    36   22   25 1
    37   23   30 1
    38   24   27 1
    39   24   29 1
    40   25   36 1
    41   26   30 1
    42   26   42 1
    43   27   35 1
    44   28   43 1
    45   30   34 1
    46    1   44 1
    47    2   45 1
    48    3   46 1
    49    4   47 1
    50   11   48 1
    51   11   49 1
    52   12   50 1
    53   12   51 1
    54   13   52 1
    55   13   53 1
    56   14   54 1
    57   14   55 1
    58   15   56 1
    59   16   57 1
    60   17   58 1
    61   18   59 1
    62   19   60 1
    63   19   61 1
    64   19   62 1
    65   20   63 1
    66   20   64 1
    67   20   65 1
    68   21   66 1
    69   21   67 1
    70   22   68 1
    71   22   69 1
    72   23   70 1
    73   23   71 1
    74   24   72 1
    75   24   73 1
    76   25   74 1
    77   25   75 1
    78   26   76 1
    79   26   77 1
    80   27   78 1
    81   28   79 1
    82   29   80 1
    83   30   81 1
    84   32   82 1
    85   32   83 1
    86   33   84 1
    87   33   85 1
    88   34   86 1
    89   35   87 1
    90   36   88 1
    91   40   89 1
    92   41   90 1
    93   42   91 1
    94   43   92 1
@<TRIPOS>MOLECULE
1a2c_ligand_54
   92    94     0     0     0
SMALL
USER_CHARGES

mmff94s_NoEstat = 107.90
@<TRIPOS>ATOM
      1 C1         -8.2899   -0.7257   -3.8297 C.ar      1 <0>        -0.0708
      2 C2         -8.8083   -1.0629   -1.4942 C.ar      1 <0>        -0.0872
      3 C3         -9.6238   -0.9646   -4.1603 C.ar      1 <0>        -0.2241
      4 C4        -10.1422   -1.3018   -1.8248 C.ar      1 <0>        -0.1600
      5 C5         -7.9001   -0.7780   -2.5012 C.ar      1 <0>        -0.1356
      6 C6        -10.5500   -1.2526   -3.1579 C.ar      1 <0>         0.1290
      7 C7         -0.1674   -1.0853   -0.0424 C.2       1 <0>         0.6664
      8 C8         -2.5997   -3.1326    0.7250 C.2       1 <0>         0.6651
      9 C9         -4.3299   -1.6044   -1.3634 C.2       1 <0>         0.6454
     10 C10        -1.9840    4.3626    1.7494 C.cat     1 <0>         0.6349
     11 C11         2.0445   -3.7524    0.2047 C.3       1 <0>        -0.0642
     12 C12         2.1951   -5.1517   -0.3975 C.3       1 <0>        -0.0747
     13 C13         0.7864   -2.3272    1.9103 C.3       1 <0>        -0.0873
     14 C14        -0.3466   -4.9962   -0.4055 C.3       1 <0>        -0.1371
     15 C15        -0.4770   -1.8334    1.2187 C.3       1 <0>         0.0360
     16 C16         1.0305   -3.7327    1.3503 C.3       1 <0>        -0.0720
     17 C17        -0.3661   -4.2312    0.9284 C.3       1 <0>         0.1201
     18 C18         0.8694   -5.9135   -0.5141 C.3       1 <0>         0.1453
     19 C19        -5.9631   -0.4404    1.7581 C.3       1 <0>        -0.0968
     20 C20        -3.8887    0.7550    2.4841 C.3       1 <0>        -0.0986
     21 C21        -6.4561   -0.5187   -2.1432 C.3       1 <0>        -0.0191
     22 C22        -1.2290    2.3228   -0.7494 C.3       1 <0>        -0.1009
     23 C23         0.3037    2.3337   -0.7876 C.3       1 <0>        -0.0942
     24 C24        -3.8619   -1.7555    2.3678 C.3       1 <0>        -0.0988
     25 C25        -1.7874    3.7418   -0.6680 C.3       1 <0>         0.1966
     26 C26         2.4918    0.9866   -0.9811 C.3       1 <0>         0.1128
     27 C27        -3.3800   -1.8574    0.9254 C.3       1 <0>         0.0786
     28 C28        -5.6231   -1.8048   -2.1437 C.3       1 <0>         0.0744
     29 C29        -4.7285   -0.5135    2.6578 C.3       1 <0>        -0.0678
     30 C30         0.9627    0.9465   -0.9241 C.3       1 <0>         0.1065
     31 N1         -1.2224   -3.0398    0.8850 N.am      1 <0>        -0.4315
     32 N2         -1.4748    5.0073    2.8719 N.pl3     1 <0>        -0.8671
     33 N3         -3.1889    3.6756    1.8506 N.pl3     1 <0>        -0.8581
     34 N4          0.5562    0.0753    0.1551 N.am      1 <0>        -0.5687
     35 N5         -4.4491   -1.9660   -0.0233 N.am      1 <0>        -0.5746
     36 N6         -1.2995    4.3971    0.5222 N.pl3     1 <0>        -0.7533
     37 O1         -0.5544   -1.5275   -1.1177 O.2       1 <0>        -0.5843
     38 O2         -3.1933   -4.1752    0.4418 O.2       1 <0>        -0.6812
     39 O3         -3.3092   -1.1565   -1.8810 O.2       1 <0>        -0.5788
     40 O4        -11.8519   -1.4841   -3.4804 O.3       1 <0>        -0.4938
     41 O5          0.7872   -6.8901    0.5248 O.3       1 <0>        -0.6030
     42 O6          3.0045   -0.3315   -1.1244 O.3       1 <0>        -0.5860
     43 O7         -5.2872   -2.1367   -3.4832 O.3       1 <0>        -0.6021
     44 H1         -7.5756   -0.5023   -4.6175 H         1 <0>         0.1412
     45 H2         -8.4997   -1.1031   -0.4528 H         1 <0>         0.1451
     46 H3         -9.9352   -0.9247   -5.2004 H         1 <0>         0.1336
     47 H4        -10.8593   -1.5248   -1.0392 H         1 <0>         0.1567
     48 H5          3.0220   -3.4003    0.5555 H         1 <0>         0.0649
     49 H6          1.7363   -3.0584   -0.5866 H         1 <0>         0.0476
     50 H7          2.6388   -5.0399   -1.3944 H         1 <0>         0.0641
     51 H8          2.9088   -5.7297    0.2024 H         1 <0>         0.0484
     52 H9          1.6439   -1.6583    1.7836 H         1 <0>         0.0596
     53 H10         0.5887   -2.4119    2.9867 H         1 <0>         0.0757
     54 H11        -1.2632   -5.5927   -0.4872 H         1 <0>         0.0782
     55 H12        -0.3526   -4.2949   -1.2498 H         1 <0>         0.0812
     56 H13        -1.0651   -1.1731    1.8629 H         1 <0>         0.0731
     57 H14         1.4245   -4.3763    2.1480 H         1 <0>         0.0511
     58 H15        -0.7725   -4.8823    1.7135 H         1 <0>         0.0753
     59 H16         0.8433   -6.4624   -1.4612 H         1 <0>         0.0427
     60 H17        -6.5181    0.4873    1.9352 H         1 <0>         0.0450
     61 H18        -6.6497   -1.2692    1.9547 H         1 <0>         0.0406
     62 H19        -5.6850   -0.4702    0.6992 H         1 <0>         0.0274
     63 H20        -3.5277    0.8553    1.4548 H         1 <0>         0.0476
     64 H21        -4.4764    1.6472    2.7254 H         1 <0>         0.0170
     65 H22        -3.0188    0.7404    3.1493 H         1 <0>         0.0477
     66 H23        -6.4103   -0.0409   -1.1554 H         1 <0>         0.0814
     67 H24        -6.0521    0.2168   -2.8502 H         1 <0>         0.0685
     68 H25        -1.6256    1.8333   -1.6465 H         1 <0>         0.1016
     69 H26        -1.5833    1.7433    0.1115 H         1 <0>         0.0660
     70 H27         0.6789    2.8127    0.1271 H         1 <0>         0.0512
     71 H28         0.6355    2.9707   -1.6175 H         1 <0>         0.0454
     72 H29        -2.9928   -1.7573    3.0396 H         1 <0>         0.0575
     73 H30        -4.4407   -2.6540    2.6237 H         1 <0>         0.0743
     74 H31        -2.8819    3.7184   -0.6415 H         1 <0>         0.0662
     75 H32        -1.4863    4.3238   -1.5451 H         1 <0>         0.0622
     76 H33         2.9238    1.4335   -0.0796 H         1 <0>         0.0321
     77 H34         2.8279    1.5728   -1.8441 H         1 <0>         0.0204
     78 H35        -2.7366   -1.0282    0.6336 H         1 <0>         0.0749
     79 H36        -6.1781   -2.6452   -1.7102 H         1 <0>         0.0719
     80 H37        -5.0656   -0.5471    3.7011 H         1 <0>         0.0609
     81 H38         0.5984    0.5173   -1.8665 H         1 <0>         0.1063
     82 H39        -0.5972    5.5197    2.8456 H         1 <0>         0.4792
     83 H40        -1.9710    4.9809    3.7596 H         1 <0>         0.4819
     84 H41        -3.5896    3.1932    1.0498 H         1 <0>         0.4802
     85 H42        -3.7018    3.6384    2.7282 H         1 <0>         0.4826
     86 H43         0.8147    0.3282    1.1041 H         1 <0>         0.3101
     87 H44        -5.3471   -2.3283    0.3008 H         1 <0>         0.3087
     88 H45        -0.4147    4.9186    0.5037 H         1 <0>         0.4846
     89 H46       -11.9124   -1.9085   -4.3510 H         1 <0>         0.4194
     90 H47         1.3049   -6.5470    1.2701 H         1 <0>         0.4036
     91 H48         3.0027   -0.7302   -0.2393 H         1 <0>         0.4114
     92 H49        -5.8765   -1.6203   -4.0570 H         1 <0>         0.3944
@<TRIPOS>BOND
     1    1    3 ar
     2    1    5 ar
     3    2    4 ar
     4    2    5 ar
     5    3    6 ar
     6    4    6 ar
     7    5   21 1
     8    6   40 1
     9    7   15 1
    10    7   34 am
    11    7   37 2
    12    8   27 1
    13    8   31 am
    14    8   38 2
    15    9   28 1
    16    9   35 am
    17    9   39 2
    18   10   32 1
    19   10   33 1
    20   10   36 1
    21   11   12 1
    22   11   16 1
    23   12   18 1
    24   13   15 1
    25   13   16 1
    26   14   17 1
    27   14   18 1
    28   15   31 1
    29   16   17 1
    30   17   31 1
    31   18   41 1
    32   19   29 1
    33   20   29 1
    34   21   28 1
    35   22   23 1
    36   22   25 1
    37   23   30 1
    38   24   27 1
    39   24   29 1
    40   25   36 1
    41   26   30 1
    42   26   42 1
    43   27   35 1
    44   28   43 1
    45   30   34 1
    46    1   44 1
    47    2   45 1
    48    3   46 1
    49    4   47 1
    50   11   48 1
    51   11   49 1
    52   12   50 1
    53   12   51 1
    54   13   52 1
    55   13   53 1
    56   14   54 1
    57   14   55 1
    58   15   56 1
    59   16   57 1
    60   17   58 1
    61   18   59 1
    62   19   60 1
    63   19   61 1
    64   19   62 1
    65   20   63 1
    66   20   64 1
    67   20   65 1
    68   21   66 1
    69   21   67 1
    70   22   68 1
    71   22   69 1
    72   23   70 1
    73   23   71 1
    74   24   72 1
    75   24   73 1
    76   25   74 1
    77   25   75 1
    78   26   76 1
    79   26   77 1
    80   27   78 1
    81   28   79 1
    82   29   80 1
    83   30   81 1
    84   32   82 1
    85   32   83 1
    86   33   84 1
    87   33   85 1
    88   34   86 1
    89   35   87 1
    90   36   88 1
    91   40   89 1
    92   41   90 1
    93   42   91 1
    94   43   92 1
@<TRIPOS>MOLECULE
1a2c_ligand_55
   92    94     0     0     0
SMALL
USER_CHARGES

mmff94s_NoEstat = 107.94
@<TRIPOS>ATOM
      1 C1         -7.7594   -0.6221    0.4299 C.ar      1 <0>        -0.0708
      2 C2         -5.6879    0.2837   -0.4219 C.ar      1 <0>        -0.0872
      3 C3         -8.0094    0.5771    1.0970 C.ar      1 <0>        -0.2241
      4 C4         -5.9379    1.4829    0.2452 C.ar      1 <0>        -0.1600
      5 C5         -6.6020   -0.7527   -0.3206 C.ar      1 <0>        -0.1356
      6 C6         -7.0987    1.6297    1.0046 C.ar      1 <0>         0.1290
      7 C7         -0.0512   -1.0561    0.2993 C.2       1 <0>         0.6664
      8 C8         -1.8469   -3.0457    2.1630 C.2       1 <0>         0.6651
      9 C9         -4.1811   -2.4610    0.1870 C.2       1 <0>         0.6454
     10 C10        -3.5405    4.7012   -2.3068 C.cat     1 <0>         0.6349
     11 C11         2.5186   -3.1911    0.6823 C.3       1 <0>        -0.0642
     12 C12         2.4580   -4.6414    0.2376 C.3       1 <0>        -0.0747
     13 C13         1.4874   -1.4827    2.2418 C.3       1 <0>        -0.0873
     14 C14         0.4946   -5.0934    1.7133 C.3       1 <0>        -0.1371
     15 C15         0.0412   -1.4176    1.7503 C.3       1 <0>         0.0360
     16 C16         1.8865   -2.9529    2.0632 C.3       1 <0>        -0.0720
     17 C17         0.5665   -3.7001    2.3454 C.3       1 <0>         0.1201
     18 C18         1.0248   -5.1525    0.2868 C.3       1 <0>         0.1453
     19 C19        -5.3726   -0.5418    3.1302 C.3       1 <0>        -0.0968
     20 C20        -3.4397    1.0389    2.9738 C.3       1 <0>        -0.0986
     21 C21        -6.3317   -2.0507   -1.0434 C.3       1 <0>        -0.0191
     22 C22        -0.9951    2.0137   -3.0747 C.3       1 <0>        -0.1009
     23 C23        -0.8794    1.4488   -1.6540 C.3       1 <0>        -0.0942
     24 C24        -2.9973   -1.3585    3.5851 C.3       1 <0>        -0.0988
     25 C25        -2.3255    2.7368   -3.2725 C.3       1 <0>         0.1966
     26 C26         1.6856    1.6412   -1.5001 C.3       1 <0>         0.1128
     27 C27        -2.7865   -1.8644    2.1628 C.3       1 <0>         0.0786
     28 C28        -5.5432   -3.0384   -0.1771 C.3       1 <0>         0.0744
     29 C29        -3.9969   -0.1898    3.6979 C.3       1 <0>        -0.0678
     30 C30         0.4555    0.7445   -1.3388 C.3       1 <0>         0.1065
     31 N1         -0.4979   -2.7598    1.9615 N.am      1 <0>        -0.4315
     32 N2         -3.6018    5.7482   -1.3930 N.pl3     1 <0>        -0.8671
     33 N3         -4.5951    4.5128   -3.1936 N.pl3     1 <0>        -0.8581
     34 N4          0.4455    0.1980   -0.0008 N.am      1 <0>        -0.5687
     35 N5         -3.9799   -2.3853    1.5634 N.am      1 <0>        -0.5746
     36 N6         -2.4324    3.8372   -2.3442 N.pl3     1 <0>        -0.7533
     37 O1         -0.5362   -1.8555   -0.4928 O.2       1 <0>        -0.5843
     38 O2         -2.2998   -4.1783    2.3409 O.2       1 <0>        -0.6812
     39 O3         -3.3708   -2.0954   -0.6616 O.2       1 <0>        -0.5788
     40 O4         -7.3435    2.8004    1.6543 O.3       1 <0>        -0.4938
     41 O5          0.9879   -6.5072   -0.1510 O.3       1 <0>        -0.6030
     42 O6          1.5971    2.7470   -0.6113 O.3       1 <0>        -0.5860
     43 O7         -5.3363   -4.2353   -0.9135 O.3       1 <0>        -0.6021
     44 H1         -8.4746   -1.4364    0.5079 H         1 <0>         0.1412
     45 H2         -4.7810    0.1784   -1.0117 H         1 <0>         0.1451
     46 H3         -8.9153    0.6853    1.6869 H         1 <0>         0.1336
     47 H4         -5.2250    2.2997    0.1686 H         1 <0>         0.1567
     48 H5          3.5627   -2.8549    0.7003 H         1 <0>         0.0649
     49 H6          2.0259   -2.5829   -0.0837 H         1 <0>         0.0476
     50 H7          2.8567   -4.7427   -0.7790 H         1 <0>         0.0641
     51 H8          3.1032   -5.2618    0.8729 H         1 <0>         0.0484
     52 H9          2.1569   -0.7868    1.7257 H         1 <0>         0.0596
     53 H10         1.5124   -1.2395    3.3116 H         1 <0>         0.0757
     54 H11         1.0921   -5.7802    2.3299 H         1 <0>         0.0782
     55 H12        -0.5175   -5.5090    1.7393 H         1 <0>         0.0812
     56 H13        -0.5378   -0.6778    2.3126 H         1 <0>         0.0731
     57 H14         2.6304   -3.2407    2.8169 H         1 <0>         0.0511
     58 H15         0.4523   -3.8218    3.4319 H         1 <0>         0.0753
     59 H16         0.3841   -4.5700   -0.3844 H         1 <0>         0.0427
     60 H17        -6.0375    0.3284    3.1563 H         1 <0>         0.0450
     61 H18        -5.8542   -1.3328    3.7128 H         1 <0>         0.0406
     62 H19        -5.2988   -0.8789    2.0908 H         1 <0>         0.0274
     63 H20        -3.3028    0.8425    1.9049 H         1 <0>         0.0476
     64 H21        -4.1178    1.8926    3.0773 H         1 <0>         0.0170
     65 H22        -2.4708    1.3315    3.3922 H         1 <0>         0.0477
     66 H23        -5.7806   -1.8391   -1.9695 H         1 <0>         0.0814
     67 H24        -7.2926   -2.4771   -1.3579 H         1 <0>         0.0685
     68 H25        -0.1747    2.7139   -3.2707 H         1 <0>         0.1016
     69 H26        -0.9072    1.2071   -3.8124 H         1 <0>         0.0660
     70 H27        -1.7000    0.7382   -1.4859 H         1 <0>         0.0512
     71 H28        -1.0340    2.2618   -0.9330 H         1 <0>         0.0454
     72 H29        -2.0302   -1.0518    4.0061 H         1 <0>         0.0575
     73 H30        -3.3514   -2.1846    4.2177 H         1 <0>         0.0743
     74 H31        -3.1606    2.0474   -3.1093 H         1 <0>         0.0662
     75 H32        -2.4046    3.1224   -4.2942 H         1 <0>         0.0622
     76 H33         1.7842    2.0214   -2.5223 H         1 <0>         0.0321
     77 H34         2.5988    1.0866   -1.2555 H         1 <0>         0.0204
     78 H35        -2.3647   -1.1082    1.5019 H         1 <0>         0.0749
     79 H36        -6.0846   -3.2900    0.7426 H         1 <0>         0.0719
     80 H37        -4.1195    0.0762    4.7551 H         1 <0>         0.0609
     81 H38         0.5463   -0.0881   -2.0483 H         1 <0>         0.1063
     82 H39        -2.8558    5.9229   -0.7250 H         1 <0>         0.4792
     83 H40        -4.4048    6.3724   -1.3667 H         1 <0>         0.4819
     84 H41        -4.5828    3.7574   -3.8745 H         1 <0>         0.4802
     85 H42        -5.4062    5.1266   -3.1851 H         1 <0>         0.4826
     86 H43         0.8216    0.7626    0.7549 H         1 <0>         0.3101
     87 H44        -4.7231   -2.7191    2.1790 H         1 <0>         0.3087
     88 H45        -1.6822    4.0219   -1.6673 H         1 <0>         0.4846
     89 H46        -7.8291    2.6330    2.4777 H         1 <0>         0.4194
     90 H47         1.8515   -6.8926    0.0654 H         1 <0>         0.4036
     91 H48         1.0115    3.3975   -1.0313 H         1 <0>         0.4114
     92 H49        -5.9568   -4.2165   -1.6604 H         1 <0>         0.3944
@<TRIPOS>BOND
     1    1    3 ar
     2    1    5 ar
     3    2    4 ar
     4    2    5 ar
     5    3    6 ar
     6    4    6 ar
     7    5   21 1
     8    6   40 1
     9    7   15 1
    10    7   34 am
    11    7   37 2
    12    8   27 1
    13    8   31 am
    14    8   38 2
    15    9   28 1
    16    9   35 am
    17    9   39 2
    18   10   32 1
    19   10   33 1
    20   10   36 1
    21   11   12 1
    22   11   16 1
    23   12   18 1
    24   13   15 1
    25   13   16 1
    26   14   17 1
    27   14   18 1
    28   15   31 1
    29   16   17 1
    30   17   31 1
    31   18   41 1
    32   19   29 1
    33   20   29 1
    34   21   28 1
    35   22   23 1
    36   22   25 1
    37   23   30 1
    38   24   27 1
    39   24   29 1
    40   25   36 1
    41   26   30 1
    42   26   42 1
    43   27   35 1
    44   28   43 1
    45   30   34 1
    46    1   44 1
    47    2   45 1
    48    3   46 1
    49    4   47 1
    50   11   48 1
    51   11   49 1
    52   12   50 1
    53   12   51 1
    54   13   52 1
    55   13   53 1
    56   14   54 1
    57   14   55 1
    58   15   56 1
    59   16   57 1
    60   17   58 1
    61   18   59 1
    62   19   60 1
    63   19   61 1
    64   19   62 1
    65   20   63 1
    66   20   64 1
    67   20   65 1
    68   21   66 1
    69   21   67 1
    70   22   68 1
    71   22   69 1
    72   23   70 1
    73   23   71 1
    74   24   72 1
    75   24   73 1
    76   25   74 1
    77   25   75 1
    78   26   76 1
    79   26   77 1
    80   27   78 1
    81   28   79 1
    82   29   80 1
    83   30   81 1
    84   32   82 1
    85   32   83 1
    86   33   84 1
    87   33   85 1
    88   34   86 1
    89   35   87 1
    90   36   88 1
    91   40   89 1
    92   41   90 1
    93   42   91 1
    94   43   92 1
@<TRIPOS>MOLECULE
1a2c_ligand_56
   92    94     0     0     0
SMALL
USER_CHARGES

mmff94s_NoEstat = 108.28
@<TRIPOS>ATOM
      1 C1         -8.1123   -5.1215    0.2464 C.ar      1 <0>        -0.0708
      2 C2         -6.5169   -6.0095   -1.3358 C.ar      1 <0>        -0.0872
      3 C3         -9.1310   -5.8431   -0.3759 C.ar      1 <0>        -0.2241
      4 C4         -7.5356   -6.7311   -1.9580 C.ar      1 <0>        -0.1600
      5 C5         -6.8190   -5.2144   -0.2419 C.ar      1 <0>        -0.1356
      6 C6         -8.8427   -6.6480   -1.4781 C.ar      1 <0>         0.1290
      7 C7         -0.0512   -1.0561    0.2993 C.2       1 <0>         0.6664
      8 C8         -1.8469   -3.0457    2.1630 C.2       1 <0>         0.6651
      9 C9         -4.1811   -2.4610    0.1870 C.2       1 <0>         0.6454
     10 C10        -2.1772   -1.1627   -4.7494 C.cat     1 <0>         0.6349
     11 C11         2.5186   -3.1911    0.6823 C.3       1 <0>        -0.0642
     12 C12         2.4580   -4.6414    0.2376 C.3       1 <0>        -0.0747
     13 C13         1.4874   -1.4827    2.2418 C.3       1 <0>        -0.0873
     14 C14         0.4946   -5.0934    1.7133 C.3       1 <0>        -0.1371
     15 C15         0.0412   -1.4176    1.7503 C.3       1 <0>         0.0360
     16 C16         1.8865   -2.9529    2.0632 C.3       1 <0>        -0.0720
     17 C17         0.5665   -3.7001    2.3454 C.3       1 <0>         0.1201
     18 C18         1.0248   -5.1525    0.2868 C.3       1 <0>         0.1453
     19 C19        -5.3726   -0.5418    3.1302 C.3       1 <0>        -0.0968
     20 C20        -3.4397    1.0389    2.9738 C.3       1 <0>        -0.0986
     21 C21        -5.7160   -4.4337    0.4322 C.3       1 <0>        -0.0191
     22 C22        -0.9951    2.0137   -3.0747 C.3       1 <0>        -0.1009
     23 C23        -0.8794    1.4488   -1.6540 C.3       1 <0>        -0.0942
     24 C24        -2.9973   -1.3585    3.5851 C.3       1 <0>        -0.0988
     25 C25        -0.9093    0.9015   -4.1176 C.3       1 <0>         0.1966
     26 C26         1.6856    1.6412   -1.5001 C.3       1 <0>         0.1128
     27 C27        -2.7865   -1.8644    2.1628 C.3       1 <0>         0.0786
     28 C28        -5.5432   -3.0384   -0.1771 C.3       1 <0>         0.0744
     29 C29        -3.9969   -0.1898    3.6979 C.3       1 <0>        -0.0678
     30 C30         0.4555    0.7445   -1.3388 C.3       1 <0>         0.1065
     31 N1         -0.4979   -2.7598    1.9615 N.am      1 <0>        -0.4315
     32 N2         -3.2267   -2.0473   -4.5232 N.pl3     1 <0>        -0.8671
     33 N3         -1.3100   -1.3971   -5.8110 N.pl3     1 <0>        -0.8581
     34 N4          0.4455    0.1980   -0.0008 N.am      1 <0>        -0.5687
     35 N5         -3.9799   -2.3853    1.5634 N.am      1 <0>        -0.5746
     36 N6         -1.9845   -0.0421   -3.9232 N.pl3     1 <0>        -0.7533
     37 O1         -0.5362   -1.8555   -0.4928 O.2       1 <0>        -0.5843
     38 O2         -2.2998   -4.1783    2.3409 O.2       1 <0>        -0.6812
     39 O3         -3.3708   -2.0954   -0.6616 O.2       1 <0>        -0.5788
     40 O4         -9.8364   -7.3534   -2.0842 O.3       1 <0>        -0.4938
     41 O5          0.9879   -6.5072   -0.1510 O.3       1 <0>        -0.6030
     42 O6          1.5971    2.7470   -0.6113 O.3       1 <0>        -0.5860
     43 O7         -6.5451   -2.1786    0.3468 O.3       1 <0>        -0.6021
     44 H1         -8.3466   -4.4971    1.1042 H         1 <0>         0.1412
     45 H2         -5.5013   -6.0806   -1.7164 H         1 <0>         0.1451
     46 H3        -10.1470   -5.7743    0.0027 H         1 <0>         0.1336
     47 H4         -7.3045   -7.3572   -2.8158 H         1 <0>         0.1567
     48 H5          3.5627   -2.8549    0.7003 H         1 <0>         0.0649
     49 H6          2.0259   -2.5829   -0.0837 H         1 <0>         0.0476
     50 H7          2.8567   -4.7427   -0.7790 H         1 <0>         0.0641
     51 H8          3.1032   -5.2618    0.8729 H         1 <0>         0.0484
     52 H9          2.1569   -0.7868    1.7257 H         1 <0>         0.0596
     53 H10         1.5124   -1.2395    3.3116 H         1 <0>         0.0757
     54 H11         1.0921   -5.7802    2.3299 H         1 <0>         0.0782
     55 H12        -0.5175   -5.5090    1.7393 H         1 <0>         0.0812
     56 H13        -0.5378   -0.6778    2.3126 H         1 <0>         0.0731
     57 H14         2.6304   -3.2407    2.8169 H         1 <0>         0.0511
     58 H15         0.4523   -3.8218    3.4319 H         1 <0>         0.0753
     59 H16         0.3841   -4.5700   -0.3844 H         1 <0>         0.0427
     60 H17        -6.0375    0.3284    3.1563 H         1 <0>         0.0450
     61 H18        -5.8542   -1.3328    3.7128 H         1 <0>         0.0406
     62 H19        -5.2988   -0.8789    2.0908 H         1 <0>         0.0274
     63 H20        -3.3028    0.8425    1.9049 H         1 <0>         0.0476
     64 H21        -4.1178    1.8926    3.0773 H         1 <0>         0.0170
     65 H22        -2.4708    1.3315    3.3922 H         1 <0>         0.0477
     66 H23        -4.7767   -4.9973    0.3545 H         1 <0>         0.0814
     67 H24        -5.9411   -4.3740    1.5044 H         1 <0>         0.0685
     68 H25        -1.9473    2.5434   -3.1941 H         1 <0>         0.1016
     69 H26        -0.1993    2.7456   -3.2583 H         1 <0>         0.0660
     70 H27        -1.7000    0.7382   -1.4859 H         1 <0>         0.0512
     71 H28        -1.0340    2.2618   -0.9330 H         1 <0>         0.0454
     72 H29        -2.0302   -1.0518    4.0061 H         1 <0>         0.0575
     73 H30        -3.3514   -2.1846    4.2177 H         1 <0>         0.0743
     74 H31         0.0481    0.3762   -4.0351 H         1 <0>         0.0662
     75 H32        -0.9770    1.3169   -5.1283 H         1 <0>         0.0622
     76 H33         1.7842    2.0214   -2.5223 H         1 <0>         0.0321
     77 H34         2.5988    1.0866   -1.2555 H         1 <0>         0.0204
     78 H35        -2.3647   -1.1082    1.5019 H         1 <0>         0.0749
     79 H36        -5.6447   -3.0594   -1.2687 H         1 <0>         0.0719
     80 H37        -4.1195    0.0762    4.7551 H         1 <0>         0.0609
     81 H38         0.5463   -0.0881   -2.0483 H         1 <0>         0.1063
     82 H39        -3.8838   -1.9173   -3.7587 H         1 <0>         0.4792
     83 H40        -3.3646   -2.8583   -5.1217 H         1 <0>         0.4819
     84 H41        -0.5324   -0.7707   -6.0048 H         1 <0>         0.4802
     85 H42        -1.4312   -2.2010   -6.4224 H         1 <0>         0.4826
     86 H43         0.8216    0.7626    0.7549 H         1 <0>         0.3101
     87 H44        -4.7231   -2.7191    2.1790 H         1 <0>         0.3087
     88 H45        -2.6541    0.0831   -3.1543 H         1 <0>         0.4846
     89 H46       -10.6756   -6.8692   -2.0272 H         1 <0>         0.4194
     90 H47         1.8515   -6.8926    0.0654 H         1 <0>         0.4036
     91 H48         1.0115    3.3975   -1.0313 H         1 <0>         0.4114
     92 H49        -7.2229   -2.7477    0.7466 H         1 <0>         0.3944
@<TRIPOS>BOND
     1    1    3 ar
     2    1    5 ar
     3    2    4 ar
     4    2    5 ar
     5    3    6 ar
     6    4    6 ar
     7    5   21 1
     8    6   40 1
     9    7   15 1
    10    7   34 am
    11    7   37 2
    12    8   27 1
    13    8   31 am
    14    8   38 2
    15    9   28 1
    16    9   35 am
    17    9   39 2
    18   10   32 1
    19   10   33 1
    20   10   36 1
    21   11   12 1
    22   11   16 1
    23   12   18 1
    24   13   15 1
    25   13   16 1
    26   14   17 1
    27   14   18 1
    28   15   31 1
    29   16   17 1
    30   17   31 1
    31   18   41 1
    32   19   29 1
    33   20   29 1
    34   21   28 1
    35   22   23 1
    36   22   25 1
    37   23   30 1
    38   24   27 1
    39   24   29 1
    40   25   36 1
    41   26   30 1
    42   26   42 1
    43   27   35 1
    44   28   43 1
    45   30   34 1
    46    1   44 1
    47    2   45 1
    48    3   46 1
    49    4   47 1
    50   11   48 1
    51   11   49 1
    52   12   50 1
    53   12   51 1
    54   13   52 1
    55   13   53 1
    56   14   54 1
    57   14   55 1
    58   15   56 1
    59   16   57 1
    60   17   58 1
    61   18   59 1
    62   19   60 1
    63   19   61 1
    64   19   62 1
    65   20   63 1
    66   20   64 1
    67   20   65 1
    68   21   66 1
    69   21   67 1
    70   22   68 1
    71   22   69 1
    72   23   70 1
    73   23   71 1
    74   24   72 1
    75   24   73 1
    76   25   74 1
    77   25   75 1
    78   26   76 1
    79   26   77 1
    80   27   78 1
    81   28   79 1
    82   29   80 1
    83   30   81 1
    84   32   82 1
    85   32   83 1
    86   33   84 1
    87   33   85 1
    88   34   86 1
    89   35   87 1
    90   36   88 1
    91   40   89 1
    92   41   90 1
    93   42   91 1
    94   43   92 1
@<TRIPOS>MOLECULE
1a2c_ligand_57
   92    94     0     0     0
SMALL
USER_CHARGES

mmff94s_NoEstat = 108.31
@<TRIPOS>ATOM
      1 C1         -8.2899   -0.7257   -3.8297 C.ar      1 <0>        -0.0708
      2 C2         -8.8083   -1.0629   -1.4942 C.ar      1 <0>        -0.0872
      3 C3         -9.6238   -0.9646   -4.1603 C.ar      1 <0>        -0.2241
      4 C4        -10.1422   -1.3018   -1.8248 C.ar      1 <0>        -0.1600
      5 C5         -7.9001   -0.7780   -2.5012 C.ar      1 <0>        -0.1356
      6 C6        -10.5500   -1.2526   -3.1579 C.ar      1 <0>         0.1290
      7 C7         -0.1674   -1.0853   -0.0424 C.2       1 <0>         0.6664
      8 C8         -2.5997   -3.1326    0.7250 C.2       1 <0>         0.6651
      9 C9         -4.3299   -1.6044   -1.3634 C.2       1 <0>         0.6454
     10 C10        -0.8838    5.7313   -1.5926 C.cat     1 <0>         0.6349
     11 C11         2.0445   -3.7524    0.2047 C.3       1 <0>        -0.0642
     12 C12         2.1951   -5.1517   -0.3975 C.3       1 <0>        -0.0747
     13 C13         0.7864   -2.3272    1.9103 C.3       1 <0>        -0.0873
     14 C14        -0.3466   -4.9962   -0.4055 C.3       1 <0>        -0.1371
     15 C15        -0.4770   -1.8334    1.2187 C.3       1 <0>         0.0360
     16 C16         1.0305   -3.7327    1.3503 C.3       1 <0>        -0.0720
     17 C17        -0.3661   -4.2312    0.9284 C.3       1 <0>         0.1201
     18 C18         0.8694   -5.9135   -0.5141 C.3       1 <0>         0.1453
     19 C19        -5.9631   -0.4404    1.7581 C.3       1 <0>        -0.0968
     20 C20        -3.8887    0.7550    2.4841 C.3       1 <0>        -0.0986
     21 C21        -6.4561   -0.5187   -2.1432 C.3       1 <0>        -0.0191
     22 C22        -0.3657    2.9388    0.0730 C.3       1 <0>        -0.1009
     23 C23         0.9718    2.4190   -0.4671 C.3       1 <0>        -0.0942
     24 C24        -3.8619   -1.7555    2.3678 C.3       1 <0>        -0.0988
     25 C25        -0.2710    4.4161    0.4476 C.3       1 <0>         0.1966
     26 C26         2.3035    0.4585   -1.4784 C.3       1 <0>         0.1128
     27 C27        -3.3800   -1.8574    0.9254 C.3       1 <0>         0.0786
     28 C28        -5.6231   -1.8048   -2.1437 C.3       1 <0>         0.0744
     29 C29        -4.7285   -0.5135    2.6578 C.3       1 <0>        -0.0678
     30 C30         0.9627    0.9465   -0.9241 C.3       1 <0>         0.1065
     31 N1         -1.2224   -3.0398    0.8850 N.am      1 <0>        -0.4315
     32 N2         -0.5032    6.4825   -2.6998 N.pl3     1 <0>        -0.8671
     33 N3         -2.2361    5.5076   -1.3575 N.pl3     1 <0>        -0.8581
     34 N4          0.5562    0.0753    0.1551 N.am      1 <0>        -0.5687
     35 N5         -4.4491   -1.9660   -0.0233 N.am      1 <0>        -0.5746
     36 N6          0.0761    5.1992   -0.7144 N.pl3     1 <0>        -0.7533
     37 O1         -0.5544   -1.5275   -1.1177 O.2       1 <0>        -0.5843
     38 O2         -3.1933   -4.1752    0.4418 O.2       1 <0>        -0.6812
     39 O3         -3.3092   -1.1565   -1.8810 O.2       1 <0>        -0.5788
     40 O4        -11.8519   -1.4841   -3.4804 O.3       1 <0>        -0.4938
     41 O5          0.7872   -6.8901    0.5248 O.3       1 <0>        -0.6030
     42 O6          2.6815    1.2516   -2.5959 O.3       1 <0>        -0.5860
     43 O7         -5.2872   -2.1367   -3.4832 O.3       1 <0>        -0.6021
     44 H1         -7.5756   -0.5023   -4.6175 H         1 <0>         0.1412
     45 H2         -8.4997   -1.1031   -0.4528 H         1 <0>         0.1451
     46 H3         -9.9352   -0.9247   -5.2004 H         1 <0>         0.1336
     47 H4        -10.8593   -1.5248   -1.0392 H         1 <0>         0.1567
     48 H5          3.0220   -3.4003    0.5555 H         1 <0>         0.0649
     49 H6          1.7363   -3.0584   -0.5866 H         1 <0>         0.0476
     50 H7          2.6388   -5.0399   -1.3944 H         1 <0>         0.0641
     51 H8          2.9088   -5.7297    0.2024 H         1 <0>         0.0484
     52 H9          1.6439   -1.6583    1.7836 H         1 <0>         0.0596
     53 H10         0.5887   -2.4119    2.9867 H         1 <0>         0.0757
     54 H11        -1.2632   -5.5927   -0.4872 H         1 <0>         0.0782
     55 H12        -0.3526   -4.2949   -1.2498 H         1 <0>         0.0812
     56 H13        -1.0651   -1.1731    1.8629 H         1 <0>         0.0731
     57 H14         1.4245   -4.3763    2.1480 H         1 <0>         0.0511
     58 H15        -0.7725   -4.8823    1.7135 H         1 <0>         0.0753
     59 H16         0.8433   -6.4624   -1.4612 H         1 <0>         0.0427
     60 H17        -6.5181    0.4873    1.9352 H         1 <0>         0.0450
     61 H18        -6.6497   -1.2692    1.9547 H         1 <0>         0.0406
     62 H19        -5.6850   -0.4702    0.6992 H         1 <0>         0.0274
     63 H20        -3.5277    0.8553    1.4548 H         1 <0>         0.0476
     64 H21        -4.4764    1.6472    2.7254 H         1 <0>         0.0170
     65 H22        -3.0188    0.7404    3.1493 H         1 <0>         0.0477
     66 H23        -6.4103   -0.0409   -1.1554 H         1 <0>         0.0814
     67 H24        -6.0521    0.2168   -2.8502 H         1 <0>         0.0685
     68 H25        -1.1525    2.8103   -0.6795 H         1 <0>         0.1016
     69 H26        -0.6706    2.3600    0.9531 H         1 <0>         0.0660
     70 H27         1.7402    2.5418    0.3082 H         1 <0>         0.0512
     71 H28         1.2882    3.0521   -1.3060 H         1 <0>         0.0454
     72 H29        -2.9928   -1.7573    3.0396 H         1 <0>         0.0575
     73 H30        -4.4407   -2.6540    2.6237 H         1 <0>         0.0743
     74 H31         0.4908    4.5641    1.2204 H         1 <0>         0.0662
     75 H32        -1.2260    4.7731    0.8467 H         1 <0>         0.0622
     76 H33         2.2598   -0.5896   -1.7925 H         1 <0>         0.0321
     77 H34         3.0888    0.5522   -0.7196 H         1 <0>         0.0204
     78 H35        -2.7366   -1.0282    0.6336 H         1 <0>         0.0749
     79 H36        -6.1781   -2.6452   -1.7102 H         1 <0>         0.0719
     80 H37        -5.0656   -0.5471    3.7011 H         1 <0>         0.0609
     81 H38         0.2159    0.8710   -1.7251 H         1 <0>         0.1063
     82 H39         0.4728    6.6733   -2.9101 H         1 <0>         0.4792
     83 H40        -1.1992    6.8675   -3.3342 H         1 <0>         0.4819
     84 H41        -2.5492    4.9630   -0.5575 H         1 <0>         0.4802
     85 H42        -2.9478    5.8820   -1.9804 H         1 <0>         0.4826
     86 H43         0.8147    0.3282    1.1041 H         1 <0>         0.3101
     87 H44        -5.3471   -2.3283    0.3008 H         1 <0>         0.3087
     88 H45         1.0600    5.3949   -0.9353 H         1 <0>         0.4846
     89 H46       -11.9124   -1.9085   -4.3510 H         1 <0>         0.4194
     90 H47         1.3049   -6.5470    1.2701 H         1 <0>         0.4036
     91 H48         2.1897    0.9107   -3.3603 H         1 <0>         0.4114
     92 H49        -5.8765   -1.6203   -4.0570 H         1 <0>         0.3944
@<TRIPOS>BOND
     1    1    3 ar
     2    1    5 ar
     3    2    4 ar
     4    2    5 ar
     5    3    6 ar
     6    4    6 ar
     7    5   21 1
     8    6   40 1
     9    7   15 1
    10    7   34 am
    11    7   37 2
    12    8   27 1
    13    8   31 am
    14    8   38 2
    15    9   28 1
    16    9   35 am
    17    9   39 2
    18   10   32 1
    19   10   33 1
    20   10   36 1
    21   11   12 1
    22   11   16 1
    23   12   18 1
    24   13   15 1
    25   13   16 1
    26   14   17 1
    27   14   18 1
    28   15   31 1
    29   16   17 1
    30   17   31 1
    31   18   41 1
    32   19   29 1
    33   20   29 1
    34   21   28 1
    35   22   23 1
    36   22   25 1
    37   23   30 1
    38   24   27 1
    39   24   29 1
    40   25   36 1
    41   26   30 1
    42   26   42 1
    43   27   35 1
    44   28   43 1
    45   30   34 1
    46    1   44 1
    47    2   45 1
    48    3   46 1
    49    4   47 1
    50   11   48 1
    51   11   49 1
    52   12   50 1
    53   12   51 1
    54   13   52 1
    55   13   53 1
    56   14   54 1
    57   14   55 1
    58   15   56 1
    59   16   57 1
    60   17   58 1
    61   18   59 1
    62   19   60 1
    63   19   61 1
    64   19   62 1
    65   20   63 1
    66   20   64 1
    67   20   65 1
    68   21   66 1
    69   21   67 1
    70   22   68 1
    71   22   69 1
    72   23   70 1
    73   23   71 1
    74   24   72 1
    75   24   73 1
    76   25   74 1
    77   25   75 1
    78   26   76 1
    79   26   77 1
    80   27   78 1
    81   28   79 1
    82   29   80 1
    83   30   81 1
    84   32   82 1
    85   32   83 1
    86   33   84 1
    87   33   85 1
    88   34   86 1
    89   35   87 1
    90   36   88 1
    91   40   89 1
    92   41   90 1
    93   42   91 1
    94   43   92 1
@<TRIPOS>MOLECULE
1a2c_ligand_58
   92    94     0     0     0
SMALL
USER_CHARGES

mmff94s_NoEstat = 108.38
@<TRIPOS>ATOM
      1 C1         -8.6272   -2.8492   -1.4308 C.ar      1 <0>        -0.0708
      2 C2         -8.6280   -2.4747    0.9560 C.ar      1 <0>        -0.0872
      3 C3         -9.9370   -3.3232   -1.3568 C.ar      1 <0>        -0.2241
      4 C4         -9.9377   -2.9488    1.0300 C.ar      1 <0>        -0.1600
      5 C5         -7.9904   -2.4312   -0.2734 C.ar      1 <0>        -0.1356
      6 C6        -10.5923   -3.3731   -0.1264 C.ar      1 <0>         0.1290
      7 C7         -0.0512   -1.0561    0.2993 C.2       1 <0>         0.6664
      8 C8         -1.8469   -3.0457    2.1630 C.2       1 <0>         0.6651
      9 C9         -4.1811   -2.4610    0.1870 C.2       1 <0>         0.6454
     10 C10        -0.9145    5.6019    1.5098 C.cat     1 <0>         0.6349
     11 C11         2.5186   -3.1911    0.6823 C.3       1 <0>        -0.0642
     12 C12         2.4580   -4.6414    0.2376 C.3       1 <0>        -0.0747
     13 C13         1.4874   -1.4827    2.2418 C.3       1 <0>        -0.0873
     14 C14         0.4946   -5.0934    1.7133 C.3       1 <0>        -0.1371
     15 C15         0.0412   -1.4176    1.7503 C.3       1 <0>         0.0360
     16 C16         1.8865   -2.9529    2.0632 C.3       1 <0>        -0.0720
     17 C17         0.5665   -3.7001    2.3454 C.3       1 <0>         0.1201
     18 C18         1.0248   -5.1525    0.2868 C.3       1 <0>         0.1453
     19 C19        -5.3726   -0.5418    3.1302 C.3       1 <0>        -0.0968
     20 C20        -3.4397    1.0389    2.9738 C.3       1 <0>        -0.0986
     21 C21        -6.5727   -1.9173   -0.3536 C.3       1 <0>        -0.0191
     22 C22         0.0133    3.1737   -0.5440 C.3       1 <0>        -0.1009
     23 C23        -0.4337    2.0012   -1.4250 C.3       1 <0>        -0.0942
     24 C24        -2.9973   -1.3585    3.5851 C.3       1 <0>        -0.0988
     25 C25        -0.9571    4.3475   -0.6564 C.3       1 <0>         0.1966
     26 C26         1.9058    0.9774   -1.7696 C.3       1 <0>         0.1128
     27 C27        -2.7865   -1.8644    2.1628 C.3       1 <0>         0.0786
     28 C28        -5.5432   -3.0384   -0.1771 C.3       1 <0>         0.0744
     29 C29        -3.9969   -0.1898    3.6979 C.3       1 <0>        -0.0678
     30 C30         0.4555    0.7445   -1.3388 C.3       1 <0>         0.1065
     31 N1         -0.4979   -2.7598    1.9615 N.am      1 <0>        -0.4315
     32 N2         -0.4552    6.6700    2.2734 N.pl3     1 <0>        -0.8671
     33 N3         -1.7880    4.6845    2.0836 N.pl3     1 <0>        -0.8581
     34 N4          0.4455    0.1980   -0.0008 N.am      1 <0>        -0.5687
     35 N5         -3.9799   -2.3853    1.5634 N.am      1 <0>        -0.5746
     36 N6         -0.5089    5.4402    0.1737 N.pl3     1 <0>        -0.7533
     37 O1         -0.5362   -1.8555   -0.4928 O.2       1 <0>        -0.5843
     38 O2         -2.2998   -4.1783    2.3409 O.2       1 <0>        -0.6812
     39 O3         -3.3708   -2.0954   -0.6616 O.2       1 <0>        -0.5788
     40 O4        -11.8709   -3.8342   -0.0545 O.3       1 <0>        -0.4938
     41 O5          0.9879   -6.5072   -0.1510 O.3       1 <0>        -0.6030
     42 O6          1.9423    1.4367   -3.1144 O.3       1 <0>        -0.5860
     43 O7         -5.4138   -3.7436   -1.4033 O.3       1 <0>        -0.6021
     44 H1         -8.1249   -2.8142   -2.3937 H         1 <0>         0.1412
     45 H2         -8.1259   -2.1460    1.8623 H         1 <0>         0.1451
     46 H3        -10.4414   -3.6521   -2.2611 H         1 <0>         0.1336
     47 H4        -10.4433   -2.9843    1.9914 H         1 <0>         0.1567
     48 H5          3.5627   -2.8549    0.7003 H         1 <0>         0.0649
     49 H6          2.0259   -2.5829   -0.0837 H         1 <0>         0.0476
     50 H7          2.8567   -4.7427   -0.7790 H         1 <0>         0.0641
     51 H8          3.1032   -5.2618    0.8729 H         1 <0>         0.0484
     52 H9          2.1569   -0.7868    1.7257 H         1 <0>         0.0596
     53 H10         1.5124   -1.2395    3.3116 H         1 <0>         0.0757
     54 H11         1.0921   -5.7802    2.3299 H         1 <0>         0.0782
     55 H12        -0.5175   -5.5090    1.7393 H         1 <0>         0.0812
     56 H13        -0.5378   -0.6778    2.3126 H         1 <0>         0.0731
     57 H14         2.6304   -3.2407    2.8169 H         1 <0>         0.0511
     58 H15         0.4523   -3.8218    3.4319 H         1 <0>         0.0753
     59 H16         0.3841   -4.5700   -0.3844 H         1 <0>         0.0427
     60 H17        -6.0375    0.3284    3.1563 H         1 <0>         0.0450
     61 H18        -5.8542   -1.3328    3.7128 H         1 <0>         0.0406
     62 H19        -5.2988   -0.8789    2.0908 H         1 <0>         0.0274
     63 H20        -3.3028    0.8425    1.9049 H         1 <0>         0.0476
     64 H21        -4.1178    1.8926    3.0773 H         1 <0>         0.0170
     65 H22        -2.4708    1.3315    3.3922 H         1 <0>         0.0477
     66 H23        -6.4251   -1.1465    0.4146 H         1 <0>         0.0814
     67 H24        -6.4443   -1.4079   -1.3169 H         1 <0>         0.0685
     68 H25         0.0724    2.8576    0.5040 H         1 <0>         0.1016
     69 H26         1.0181    3.5045   -0.8331 H         1 <0>         0.0660
     70 H27        -0.4694    2.3356   -2.4708 H         1 <0>         0.0512
     71 H28        -1.4639    1.7294   -1.1616 H         1 <0>         0.0454
     72 H29        -2.0302   -1.0518    4.0061 H         1 <0>         0.0575
     73 H30        -3.3514   -2.1846    4.2177 H         1 <0>         0.0743
     74 H31        -1.9599    4.0433   -0.3383 H         1 <0>         0.0662
     75 H32        -1.0251    4.6914   -1.6936 H         1 <0>         0.0622
     76 H33         2.5067    0.0649   -1.6955 H         1 <0>         0.0321
     77 H34         2.3741    1.7433   -1.1408 H         1 <0>         0.0204
     78 H35        -2.3647   -1.1082    1.5019 H         1 <0>         0.0749
     79 H36        -5.8508   -3.7504    0.5980 H         1 <0>         0.0719
     80 H37        -4.1195    0.0762    4.7551 H         1 <0>         0.0609
     81 H38         0.0149    0.0012   -2.0158 H         1 <0>         0.1063
     82 H39         0.1854    7.3637    1.8970 H         1 <0>         0.4792
     83 H40        -0.7491    6.7854    3.2405 H         1 <0>         0.4819
     84 H41        -2.1431    3.8921    1.5539 H         1 <0>         0.4802
     85 H42        -2.0956    4.7825    3.0482 H         1 <0>         0.4826
     86 H43         0.8216    0.7626    0.7549 H         1 <0>         0.3101
     87 H44        -4.7231   -2.7191    2.1790 H         1 <0>         0.3087
     88 H45         0.1368    6.1466   -0.1996 H         1 <0>         0.4846
     89 H46       -12.0198   -4.5188   -0.7260 H         1 <0>         0.4194
     90 H47         1.8515   -6.8926    0.0654 H         1 <0>         0.4036
     91 H48         1.8522    0.6531   -3.6803 H         1 <0>         0.4114
     92 H49        -6.1819   -3.5045   -1.9474 H         1 <0>         0.3944
@<TRIPOS>BOND
     1    1    3 ar
     2    1    5 ar
     3    2    4 ar
     4    2    5 ar
     5    3    6 ar
     6    4    6 ar
     7    5   21 1
     8    6   40 1
     9    7   15 1
    10    7   34 am
    11    7   37 2
    12    8   27 1
    13    8   31 am
    14    8   38 2
    15    9   28 1
    16    9   35 am
    17    9   39 2
    18   10   32 1
    19   10   33 1
    20   10   36 1
    21   11   12 1
    22   11   16 1
    23   12   18 1
    24   13   15 1
    25   13   16 1
    26   14   17 1
    27   14   18 1
    28   15   31 1
    29   16   17 1
    30   17   31 1
    31   18   41 1
    32   19   29 1
    33   20   29 1
    34   21   28 1
    35   22   23 1
    36   22   25 1
    37   23   30 1
    38   24   27 1
    39   24   29 1
    40   25   36 1
    41   26   30 1
    42   26   42 1
    43   27   35 1
    44   28   43 1
    45   30   34 1
    46    1   44 1
    47    2   45 1
    48    3   46 1
    49    4   47 1
    50   11   48 1
    51   11   49 1
    52   12   50 1
    53   12   51 1
    54   13   52 1
    55   13   53 1
    56   14   54 1
    57   14   55 1
    58   15   56 1
    59   16   57 1
    60   17   58 1
    61   18   59 1
    62   19   60 1
    63   19   61 1
    64   19   62 1
    65   20   63 1
    66   20   64 1
    67   20   65 1
    68   21   66 1
    69   21   67 1
    70   22   68 1
    71   22   69 1
    72   23   70 1
    73   23   71 1
    74   24   72 1
    75   24   73 1
    76   25   74 1
    77   25   75 1
    78   26   76 1
    79   26   77 1
    80   27   78 1
    81   28   79 1
    82   29   80 1
    83   30   81 1
    84   32   82 1
    85   32   83 1
    86   33   84 1
    87   33   85 1
    88   34   86 1
    89   35   87 1
    90   36   88 1
    91   40   89 1
    92   41   90 1
    93   42   91 1
    94   43   92 1
@<TRIPOS>MOLECULE
1a2c_ligand_59
   92    94     0     0     0
SMALL
USER_CHARGES

mmff94s_NoEstat = 108.41
@<TRIPOS>ATOM
      1 C1         -7.6234   -1.4161   -4.7644 C.ar      1 <0>        -0.0708
      2 C2         -8.2031    0.4422   -3.3334 C.ar      1 <0>        -0.0872
      3 C3         -8.9033   -1.3888   -5.3183 C.ar      1 <0>        -0.2241
      4 C4         -9.4830    0.4694   -3.8873 C.ar      1 <0>        -0.1600
      5 C5         -7.2905   -0.5002   -3.7794 C.ar      1 <0>        -0.1356
      6 C6         -9.8331   -0.4461   -4.8797 C.ar      1 <0>         0.1290
      7 C7         -0.1674   -1.0853   -0.0424 C.2       1 <0>         0.6664
      8 C8         -2.5997   -3.1326    0.7250 C.2       1 <0>         0.6651
      9 C9         -4.5933   -1.1215   -1.1219 C.2       1 <0>         0.6454
     10 C10        -3.9129    3.3143   -1.1794 C.cat     1 <0>         0.6349
     11 C11         2.0445   -3.7524    0.2047 C.3       1 <0>        -0.0642
     12 C12         2.1951   -5.1517   -0.3975 C.3       1 <0>        -0.0747
     13 C13         0.7864   -2.3272    1.9103 C.3       1 <0>        -0.0873
     14 C14        -0.3466   -4.9962   -0.4055 C.3       1 <0>        -0.1371
     15 C15        -0.4770   -1.8334    1.2187 C.3       1 <0>         0.0360
     16 C16         1.0305   -3.7327    1.3503 C.3       1 <0>        -0.0720
     17 C17        -0.3661   -4.2312    0.9284 C.3       1 <0>         0.1201
     18 C18         0.8694   -5.9135   -0.5141 C.3       1 <0>         0.1453
     19 C19        -5.9631   -0.4404    1.7581 C.3       1 <0>        -0.0968
     20 C20        -3.8887    0.7550    2.4841 C.3       1 <0>        -0.0986
     21 C21        -5.9046   -0.5293   -3.1803 C.3       1 <0>        -0.0191
     22 C22        -0.3657    2.9388    0.0730 C.3       1 <0>        -0.1009
     23 C23         0.9718    2.4190   -0.4671 C.3       1 <0>        -0.0942
     24 C24        -3.8619   -1.7555    2.3678 C.3       1 <0>        -0.0988
     25 C25        -1.4736    2.7918   -0.9676 C.3       1 <0>         0.1966
     26 C26         2.3035    0.4585   -1.4784 C.3       1 <0>         0.1128
     27 C27        -3.3800   -1.8574    0.9254 C.3       1 <0>         0.0786
     28 C28        -5.8260   -1.4472   -1.9560 C.3       1 <0>         0.0744
     29 C29        -4.7285   -0.5135    2.6578 C.3       1 <0>        -0.0678
     30 C30         0.9627    0.9465   -0.9241 C.3       1 <0>         0.1065
     31 N1         -1.2224   -3.0398    0.8850 N.am      1 <0>        -0.4315
     32 N2         -5.0903    3.8087   -0.6278 N.pl3     1 <0>        -0.8671
     33 N3         -3.9255    2.8321   -2.4837 N.pl3     1 <0>        -0.8581
     34 N4          0.5562    0.0753    0.1551 N.am      1 <0>        -0.5687
     35 N5         -4.4491   -1.9660   -0.0233 N.am      1 <0>        -0.5746
     36 N6         -2.7184    3.2966   -0.4387 N.pl3     1 <0>        -0.7533
     37 O1         -0.5544   -1.5275   -1.1177 O.2       1 <0>        -0.5843
     38 O2         -3.1933   -4.1752    0.4418 O.2       1 <0>        -0.6812
     39 O3         -3.8320   -0.1982   -1.4017 O.2       1 <0>        -0.5788
     40 O4        -11.0815   -0.4184   -5.4214 O.3       1 <0>        -0.4938
     41 O5          0.7872   -6.8901    0.5248 O.3       1 <0>        -0.6030
     42 O6          2.6815    1.2516   -2.5959 O.3       1 <0>        -0.5860
     43 O7         -5.7228   -2.7942   -2.3947 O.3       1 <0>        -0.6021
     44 H1         -6.9059   -2.1543   -5.1123 H         1 <0>         0.1412
     45 H2         -7.9390    1.1596   -2.5607 H         1 <0>         0.1451
     46 H3         -9.1699   -2.1044   -6.0910 H         1 <0>         0.1336
     47 H4        -10.2028    1.2070   -3.5420 H         1 <0>         0.1567
     48 H5          3.0220   -3.4003    0.5555 H         1 <0>         0.0649
     49 H6          1.7363   -3.0584   -0.5866 H         1 <0>         0.0476
     50 H7          2.6388   -5.0399   -1.3944 H         1 <0>         0.0641
     51 H8          2.9088   -5.7297    0.2024 H         1 <0>         0.0484
     52 H9          1.6439   -1.6583    1.7836 H         1 <0>         0.0596
     53 H10         0.5887   -2.4119    2.9867 H         1 <0>         0.0757
     54 H11        -1.2632   -5.5927   -0.4872 H         1 <0>         0.0782
     55 H12        -0.3526   -4.2949   -1.2498 H         1 <0>         0.0812
     56 H13        -1.0651   -1.1731    1.8629 H         1 <0>         0.0731
     57 H14         1.4245   -4.3763    2.1480 H         1 <0>         0.0511
     58 H15        -0.7725   -4.8823    1.7135 H         1 <0>         0.0753
     59 H16         0.8433   -6.4624   -1.4612 H         1 <0>         0.0427
     60 H17        -6.5181    0.4873    1.9352 H         1 <0>         0.0450
     61 H18        -6.6497   -1.2692    1.9547 H         1 <0>         0.0406
     62 H19        -5.6850   -0.4702    0.6992 H         1 <0>         0.0274
     63 H20        -3.5277    0.8553    1.4548 H         1 <0>         0.0476
     64 H21        -4.4764    1.6472    2.7254 H         1 <0>         0.0170
     65 H22        -3.0188    0.7404    3.1493 H         1 <0>         0.0477
     66 H23        -5.6102    0.4921   -2.9045 H         1 <0>         0.0814
     67 H24        -5.1986   -0.8441   -3.9590 H         1 <0>         0.0685
     68 H25        -0.6484    2.3866    0.9768 H         1 <0>         0.1016
     69 H26        -0.2753    3.9932    0.3603 H         1 <0>         0.0660
     70 H27         1.7402    2.5418    0.3082 H         1 <0>         0.0512
     71 H28         1.2882    3.0521   -1.3060 H         1 <0>         0.0454
     72 H29        -2.9928   -1.7573    3.0396 H         1 <0>         0.0575
     73 H30        -4.4407   -2.6540    2.6237 H         1 <0>         0.0743
     74 H31        -1.6009    1.7390   -1.2410 H         1 <0>         0.0662
     75 H32        -1.2215    3.3457   -1.8778 H         1 <0>         0.0622
     76 H33         2.2598   -0.5896   -1.7925 H         1 <0>         0.0321
     77 H34         3.0888    0.5522   -0.7196 H         1 <0>         0.0204
     78 H35        -2.7366   -1.0282    0.6336 H         1 <0>         0.0749
     79 H36        -6.7196   -1.3583   -1.3269 H         1 <0>         0.0719
     80 H37        -5.0656   -0.5471    3.7011 H         1 <0>         0.0609
     81 H38         0.2159    0.8710   -1.7251 H         1 <0>         0.1063
     82 H39        -5.1291    4.1693    0.3217 H         1 <0>         0.4792
     83 H40        -5.9543    3.8203   -1.1649 H         1 <0>         0.4819
     84 H41        -3.0827    2.4636   -2.9177 H         1 <0>         0.4802
     85 H42        -4.7781    2.8363   -3.0385 H         1 <0>         0.4826
     86 H43         0.8147    0.3282    1.1041 H         1 <0>         0.3101
     87 H44        -5.1428   -2.7027    0.1135 H         1 <0>         0.3087
     88 H45        -2.7657    3.6647    0.5191 H         1 <0>         0.4846
     89 H46       -11.3601   -1.3142   -5.6701 H         1 <0>         0.4194
     90 H47         1.3049   -6.5470    1.2701 H         1 <0>         0.4036
     91 H48         2.1897    0.9107   -3.3603 H         1 <0>         0.4114
     92 H49        -5.9843   -2.8060   -3.3299 H         1 <0>         0.3944
@<TRIPOS>BOND
     1    1    3 ar
     2    1    5 ar
     3    2    4 ar
     4    2    5 ar
     5    3    6 ar
     6    4    6 ar
     7    5   21 1
     8    6   40 1
     9    7   15 1
    10    7   34 am
    11    7   37 2
    12    8   27 1
    13    8   31 am
    14    8   38 2
    15    9   28 1
    16    9   35 am
    17    9   39 2
    18   10   32 1
    19   10   33 1
    20   10   36 1
    21   11   12 1
    22   11   16 1
    23   12   18 1
    24   13   15 1
    25   13   16 1
    26   14   17 1
    27   14   18 1
    28   15   31 1
    29   16   17 1
    30   17   31 1
    31   18   41 1
    32   19   29 1
    33   20   29 1
    34   21   28 1
    35   22   23 1
    36   22   25 1
    37   23   30 1
    38   24   27 1
    39   24   29 1
    40   25   36 1
    41   26   30 1
    42   26   42 1
    43   27   35 1
    44   28   43 1
    45   30   34 1
    46    1   44 1
    47    2   45 1
    48    3   46 1
    49    4   47 1
    50   11   48 1
    51   11   49 1
    52   12   50 1
    53   12   51 1
    54   13   52 1
    55   13   53 1
    56   14   54 1
    57   14   55 1
    58   15   56 1
    59   16   57 1
    60   17   58 1
    61   18   59 1
    62   19   60 1
    63   19   61 1
    64   19   62 1
    65   20   63 1
    66   20   64 1
    67   20   65 1
    68   21   66 1
    69   21   67 1
    70   22   68 1
    71   22   69 1
    72   23   70 1
    73   23   71 1
    74   24   72 1
    75   24   73 1
    76   25   74 1
    77   25   75 1
    78   26   76 1
    79   26   77 1
    80   27   78 1
    81   28   79 1
    82   29   80 1
    83   30   81 1
    84   32   82 1
    85   32   83 1
    86   33   84 1
    87   33   85 1
    88   34   86 1
    89   35   87 1
    90   36   88 1
    91   40   89 1
    92   41   90 1
    93   42   91 1
    94   43   92 1
@<TRIPOS>MOLECULE
1a2c_ligand_60
   92    94     0     0     0
SMALL
USER_CHARGES

mmff94s_NoEstat = 108.41
@<TRIPOS>ATOM
      1 C1         -7.6468    0.6813   -1.2254 C.ar      1 <0>        -0.0708
      2 C2         -5.3486    1.4183   -1.3348 C.ar      1 <0>        -0.0872
      3 C3         -7.9154    1.6609   -0.2695 C.ar      1 <0>        -0.2241
      4 C4         -5.6172    2.3979   -0.3789 C.ar      1 <0>        -0.1600
      5 C5         -6.3670    0.5731   -1.7453 C.ar      1 <0>        -0.1356
      6 C6         -6.9006    2.5192    0.1538 C.ar      1 <0>         0.1290
      7 C7         -0.1674   -1.0853   -0.0424 C.2       1 <0>         0.6664
      8 C8         -2.5997   -3.1326    0.7250 C.2       1 <0>         0.6651
      9 C9         -4.3299   -1.6044   -1.3634 C.2       1 <0>         0.6454
     10 C10         0.2119    6.5979   -0.6814 C.cat     1 <0>         0.6349
     11 C11         2.0445   -3.7524    0.2047 C.3       1 <0>        -0.0642
     12 C12         2.1951   -5.1517   -0.3975 C.3       1 <0>        -0.0747
     13 C13         0.7864   -2.3272    1.9103 C.3       1 <0>        -0.0873
     14 C14        -0.3466   -4.9962   -0.4055 C.3       1 <0>        -0.1371
     15 C15        -0.4770   -1.8334    1.2187 C.3       1 <0>         0.0360
     16 C16         1.0305   -3.7327    1.3503 C.3       1 <0>        -0.0720
     17 C17        -0.3661   -4.2312    0.9284 C.3       1 <0>         0.1201
     18 C18         0.8694   -5.9135   -0.5141 C.3       1 <0>         0.1453
     19 C19        -5.9631   -0.4404    1.7581 C.3       1 <0>        -0.0968
     20 C20        -3.8887    0.7550    2.4841 C.3       1 <0>        -0.0986
     21 C21        -6.0764   -0.4870   -2.7807 C.3       1 <0>        -0.0191
     22 C22        -0.3657    2.9388    0.0730 C.3       1 <0>        -0.1009
     23 C23         0.9718    2.4190   -0.4671 C.3       1 <0>        -0.0942
     24 C24        -3.8619   -1.7555    2.3678 C.3       1 <0>        -0.0988
     25 C25        -0.2710    4.4161    0.4476 C.3       1 <0>         0.1966
     26 C26         2.3035    0.4585   -1.4784 C.3       1 <0>         0.1128
     27 C27        -3.3800   -1.8574    0.9254 C.3       1 <0>         0.0786
     28 C28        -5.6231   -1.8048   -2.1437 C.3       1 <0>         0.0744
     29 C29        -4.7285   -0.5135    2.6578 C.3       1 <0>        -0.0678
     30 C30         0.9627    0.9465   -0.9241 C.3       1 <0>         0.1065
     31 N1         -1.2224   -3.0398    0.8850 N.am      1 <0>        -0.4315
     32 N2          0.5502    7.3118   -1.8263 N.pl3     1 <0>        -0.8671
     33 N3          0.0065    7.2851    0.5101 N.pl3     1 <0>        -0.8581
     34 N4          0.5562    0.0753    0.1551 N.am      1 <0>        -0.5687
     35 N5         -4.4491   -1.9660   -0.0233 N.am      1 <0>        -0.5746
     36 N6          0.0761    5.1992   -0.7144 N.pl3     1 <0>        -0.7533
     37 O1         -0.5544   -1.5275   -1.1177 O.2       1 <0>        -0.5843
     38 O2         -3.1933   -4.1752    0.4418 O.2       1 <0>        -0.6812
     39 O3         -3.3092   -1.1565   -1.8810 O.2       1 <0>        -0.5788
     40 O4         -7.1632    3.4762    1.0854 O.3       1 <0>        -0.4938
     41 O5          0.7872   -6.8901    0.5248 O.3       1 <0>        -0.6030
     42 O6          3.3063    0.5601   -0.4760 O.3       1 <0>        -0.5860
     43 O7         -5.3797   -2.7546   -3.1713 O.3       1 <0>        -0.6021
     44 H1         -8.4437    0.0171   -1.5488 H         1 <0>         0.1412
     45 H2         -4.3456    1.3313   -1.7446 H         1 <0>         0.1451
     46 H3         -8.9171    1.7505    0.1415 H         1 <0>         0.1336
     47 H4         -4.8226    3.0643   -0.0538 H         1 <0>         0.1567
     48 H5          3.0220   -3.4003    0.5555 H         1 <0>         0.0649
     49 H6          1.7363   -3.0584   -0.5866 H         1 <0>         0.0476
     50 H7          2.6388   -5.0399   -1.3944 H         1 <0>         0.0641
     51 H8          2.9088   -5.7297    0.2024 H         1 <0>         0.0484
     52 H9          1.6439   -1.6583    1.7836 H         1 <0>         0.0596
     53 H10         0.5887   -2.4119    2.9867 H         1 <0>         0.0757
     54 H11        -1.2632   -5.5927   -0.4872 H         1 <0>         0.0782
     55 H12        -0.3526   -4.2949   -1.2498 H         1 <0>         0.0812
     56 H13        -1.0651   -1.1731    1.8629 H         1 <0>         0.0731
     57 H14         1.4245   -4.3763    2.1480 H         1 <0>         0.0511
     58 H15        -0.7725   -4.8823    1.7135 H         1 <0>         0.0753
     59 H16         0.8433   -6.4624   -1.4612 H         1 <0>         0.0427
     60 H17        -6.5181    0.4873    1.9352 H         1 <0>         0.0450
     61 H18        -6.6497   -1.2692    1.9547 H         1 <0>         0.0406
     62 H19        -5.6850   -0.4702    0.6992 H         1 <0>         0.0274
     63 H20        -3.5277    0.8553    1.4548 H         1 <0>         0.0476
     64 H21        -4.4764    1.6472    2.7254 H         1 <0>         0.0170
     65 H22        -3.0188    0.7404    3.1493 H         1 <0>         0.0477
     66 H23        -5.3046   -0.1164   -3.4686 H         1 <0>         0.0814
     67 H24        -6.9772   -0.6296   -3.3908 H         1 <0>         0.0685
     68 H25        -1.1525    2.8103   -0.6795 H         1 <0>         0.1016
     69 H26        -0.6706    2.3600    0.9531 H         1 <0>         0.0660
     70 H27         1.7402    2.5418    0.3082 H         1 <0>         0.0512
     71 H28         1.2882    3.0521   -1.3060 H         1 <0>         0.0454
     72 H29        -2.9928   -1.7573    3.0396 H         1 <0>         0.0575
     73 H30        -4.4407   -2.6540    2.6237 H         1 <0>         0.0743
     74 H31         0.4908    4.5641    1.2204 H         1 <0>         0.0662
     75 H32        -1.2260    4.7731    0.8467 H         1 <0>         0.0622
     76 H33         2.6215    1.0387   -2.3510 H         1 <0>         0.0321
     77 H34         2.2342   -0.5935   -1.7781 H         1 <0>         0.0204
     78 H35        -2.7366   -1.0282    0.6336 H         1 <0>         0.0749
     79 H36        -6.3883   -2.2128   -1.4727 H         1 <0>         0.0719
     80 H37        -5.0656   -0.5471    3.7011 H         1 <0>         0.0609
     81 H38         0.2159    0.8710   -1.7251 H         1 <0>         0.1063
     82 H39         0.7116    6.8520   -2.7184 H         1 <0>         0.4792
     83 H40         0.6487    8.3241   -1.8007 H         1 <0>         0.4819
     84 H41        -0.2418    6.7944    1.3657 H         1 <0>         0.4802
     85 H42         0.0982    8.2971    0.5568 H         1 <0>         0.4826
     86 H43         0.8147    0.3282    1.1041 H         1 <0>         0.3101
     87 H44        -5.3471   -2.3283    0.3008 H         1 <0>         0.3087
     88 H45         0.2389    4.7426   -1.6201 H         1 <0>         0.4846
     89 H46        -7.8429    3.1654    1.7044 H         1 <0>         0.4194
     90 H47         1.3049   -6.5470    1.2701 H         1 <0>         0.4036
     91 H48         3.5968    1.4864   -0.4636 H         1 <0>         0.4114
     92 H49        -5.8026   -2.4127   -3.9759 H         1 <0>         0.3944
@<TRIPOS>BOND
     1    1    3 ar
     2    1    5 ar
     3    2    4 ar
     4    2    5 ar
     5    3    6 ar
     6    4    6 ar
     7    5   21 1
     8    6   40 1
     9    7   15 1
    10    7   34 am
    11    7   37 2
    12    8   27 1
    13    8   31 am
    14    8   38 2
    15    9   28 1
    16    9   35 am
    17    9   39 2
    18   10   32 1
    19   10   33 1
    20   10   36 1
    21   11   12 1
    22   11   16 1
    23   12   18 1
    24   13   15 1
    25   13   16 1
    26   14   17 1
    27   14   18 1
    28   15   31 1
    29   16   17 1
    30   17   31 1
    31   18   41 1
    32   19   29 1
    33   20   29 1
    34   21   28 1
    35   22   23 1
    36   22   25 1
    37   23   30 1
    38   24   27 1
    39   24   29 1
    40   25   36 1
    41   26   30 1
    42   26   42 1
    43   27   35 1
    44   28   43 1
    45   30   34 1
    46    1   44 1
    47    2   45 1
    48    3   46 1
    49    4   47 1
    50   11   48 1
    51   11   49 1
    52   12   50 1
    53   12   51 1
    54   13   52 1
    55   13   53 1
    56   14   54 1
    57   14   55 1
    58   15   56 1
    59   16   57 1
    60   17   58 1
    61   18   59 1
    62   19   60 1
    63   19   61 1
    64   19   62 1
    65   20   63 1
    66   20   64 1
    67   20   65 1
    68   21   66 1
    69   21   67 1
    70   22   68 1
    71   22   69 1
    72   23   70 1
    73   23   71 1
    74   24   72 1
    75   24   73 1
    76   25   74 1
    77   25   75 1
    78   26   76 1
    79   26   77 1
    80   27   78 1
    81   28   79 1
    82   29   80 1
    83   30   81 1
    84   32   82 1
    85   32   83 1
    86   33   84 1
    87   33   85 1
    88   34   86 1
    89   35   87 1
    90   36   88 1
    91   40   89 1
    92   41   90 1
    93   42   91 1
    94   43   92 1
@<TRIPOS>MOLECULE
1a2c_ligand_61
   92    94     0     0     0
SMALL
USER_CHARGES

mmff94s_NoEstat = 108.58
@<TRIPOS>ATOM
      1 C1         -8.1123   -5.1215    0.2464 C.ar      1 <0>        -0.0708
      2 C2         -6.5169   -6.0095   -1.3358 C.ar      1 <0>        -0.0872
      3 C3         -9.1310   -5.8431   -0.3759 C.ar      1 <0>        -0.2241
      4 C4         -7.5356   -6.7311   -1.9580 C.ar      1 <0>        -0.1600
      5 C5         -6.8190   -5.2144   -0.2419 C.ar      1 <0>        -0.1356
      6 C6         -8.8427   -6.6480   -1.4781 C.ar      1 <0>         0.1290
      7 C7         -0.0512   -1.0561    0.2993 C.2       1 <0>         0.6664
      8 C8         -1.8469   -3.0457    2.1630 C.2       1 <0>         0.6651
      9 C9         -4.1811   -2.4610    0.1870 C.2       1 <0>         0.6454
     10 C10        -0.9406    0.6782   -6.6110 C.cat     1 <0>         0.6349
     11 C11         2.5186   -3.1911    0.6823 C.3       1 <0>        -0.0642
     12 C12         2.4580   -4.6414    0.2376 C.3       1 <0>        -0.0747
     13 C13         1.4874   -1.4827    2.2418 C.3       1 <0>        -0.0873
     14 C14         0.4946   -5.0934    1.7133 C.3       1 <0>        -0.1371
     15 C15         0.0412   -1.4176    1.7503 C.3       1 <0>         0.0360
     16 C16         1.8865   -2.9529    2.0632 C.3       1 <0>        -0.0720
     17 C17         0.5665   -3.7001    2.3454 C.3       1 <0>         0.1201
     18 C18         1.0248   -5.1525    0.2868 C.3       1 <0>         0.1453
     19 C19        -5.3726   -0.5418    3.1302 C.3       1 <0>        -0.0968
     20 C20        -3.4397    1.0389    2.9738 C.3       1 <0>        -0.0986
     21 C21        -5.7160   -4.4337    0.4322 C.3       1 <0>        -0.0191
     22 C22        -0.9951    2.0137   -3.0747 C.3       1 <0>        -0.1009
     23 C23        -0.8794    1.4488   -1.6540 C.3       1 <0>        -0.0942
     24 C24        -2.9973   -1.3585    3.5851 C.3       1 <0>        -0.0988
     25 C25        -0.9093    0.9015   -4.1176 C.3       1 <0>         0.1966
     26 C26         1.6856    1.6412   -1.5001 C.3       1 <0>         0.1128
     27 C27        -2.7865   -1.8644    2.1628 C.3       1 <0>         0.0786
     28 C28        -5.5432   -3.0384   -0.1771 C.3       1 <0>         0.0744
     29 C29        -3.9969   -0.1898    3.6979 C.3       1 <0>        -0.0678
     30 C30         0.4555    0.7445   -1.3388 C.3       1 <0>         0.1065
     31 N1         -0.4979   -2.7598    1.9615 N.am      1 <0>        -0.4315
     32 N2         -1.0455    1.2596   -7.8703 N.pl3     1 <0>        -0.8671
     33 N3         -0.7637   -0.6976   -6.5120 N.pl3     1 <0>        -0.8581
     34 N4          0.4455    0.1980   -0.0008 N.am      1 <0>        -0.5687
     35 N5         -3.9799   -2.3853    1.5634 N.am      1 <0>        -0.5746
     36 N6         -1.0107    1.4600   -5.4449 N.pl3     1 <0>        -0.7533
     37 O1         -0.5362   -1.8555   -0.4928 O.2       1 <0>        -0.5843
     38 O2         -2.2998   -4.1783    2.3409 O.2       1 <0>        -0.6812
     39 O3         -3.3708   -2.0954   -0.6616 O.2       1 <0>        -0.5788
     40 O4         -9.8364   -7.3534   -2.0842 O.3       1 <0>        -0.4938
     41 O5          0.9879   -6.5072   -0.1510 O.3       1 <0>        -0.6030
     42 O6          1.5971    2.7470   -0.6113 O.3       1 <0>        -0.5860
     43 O7         -6.5451   -2.1786    0.3468 O.3       1 <0>        -0.6021
     44 H1         -8.3466   -4.4971    1.1042 H         1 <0>         0.1412
     45 H2         -5.5013   -6.0806   -1.7164 H         1 <0>         0.1451
     46 H3        -10.1470   -5.7743    0.0027 H         1 <0>         0.1336
     47 H4         -7.3045   -7.3572   -2.8158 H         1 <0>         0.1567
     48 H5          3.5627   -2.8549    0.7003 H         1 <0>         0.0649
     49 H6          2.0259   -2.5829   -0.0837 H         1 <0>         0.0476
     50 H7          2.8567   -4.7427   -0.7790 H         1 <0>         0.0641
     51 H8          3.1032   -5.2618    0.8729 H         1 <0>         0.0484
     52 H9          2.1569   -0.7868    1.7257 H         1 <0>         0.0596
     53 H10         1.5124   -1.2395    3.3116 H         1 <0>         0.0757
     54 H11         1.0921   -5.7802    2.3299 H         1 <0>         0.0782
     55 H12        -0.5175   -5.5090    1.7393 H         1 <0>         0.0812
     56 H13        -0.5378   -0.6778    2.3126 H         1 <0>         0.0731
     57 H14         2.6304   -3.2407    2.8169 H         1 <0>         0.0511
     58 H15         0.4523   -3.8218    3.4319 H         1 <0>         0.0753
     59 H16         0.3841   -4.5700   -0.3844 H         1 <0>         0.0427
     60 H17        -6.0375    0.3284    3.1563 H         1 <0>         0.0450
     61 H18        -5.8542   -1.3328    3.7128 H         1 <0>         0.0406
     62 H19        -5.2988   -0.8789    2.0908 H         1 <0>         0.0274
     63 H20        -3.3028    0.8425    1.9049 H         1 <0>         0.0476
     64 H21        -4.1178    1.8926    3.0773 H         1 <0>         0.0170
     65 H22        -2.4708    1.3315    3.3922 H         1 <0>         0.0477
     66 H23        -4.7767   -4.9973    0.3545 H         1 <0>         0.0814
     67 H24        -5.9411   -4.3740    1.5044 H         1 <0>         0.0685
     68 H25        -1.9473    2.5434   -3.1941 H         1 <0>         0.1016
     69 H26        -0.1993    2.7456   -3.2583 H         1 <0>         0.0660
     70 H27        -1.7000    0.7382   -1.4859 H         1 <0>         0.0512
     71 H28        -1.0340    2.2618   -0.9330 H         1 <0>         0.0454
     72 H29        -2.0302   -1.0518    4.0061 H         1 <0>         0.0575
     73 H30        -3.3514   -2.1846    4.2177 H         1 <0>         0.0743
     74 H31        -1.7187    0.1787   -3.9697 H         1 <0>         0.0662
     75 H32         0.0401    0.3636   -4.0280 H         1 <0>         0.0622
     76 H33         1.7842    2.0214   -2.5223 H         1 <0>         0.0321
     77 H34         2.5988    1.0866   -1.2555 H         1 <0>         0.0204
     78 H35        -2.3647   -1.1082    1.5019 H         1 <0>         0.0749
     79 H36        -5.6447   -3.0594   -1.2687 H         1 <0>         0.0719
     80 H37        -4.1195    0.0762    4.7551 H         1 <0>         0.0609
     81 H38         0.5463   -0.0881   -2.0483 H         1 <0>         0.1063
     82 H39        -1.1773    2.2602   -7.9911 H         1 <0>         0.4792
     83 H40        -0.9951    0.6924   -8.7134 H         1 <0>         0.4819
     84 H41        -0.6834   -1.1551   -5.6072 H         1 <0>         0.4802
     85 H42        -0.7090   -1.2825   -7.3424 H         1 <0>         0.4826
     86 H43         0.8216    0.7626    0.7549 H         1 <0>         0.3101
     87 H44        -4.7231   -2.7191    2.1790 H         1 <0>         0.3087
     88 H45        -1.1420    2.4704   -5.5758 H         1 <0>         0.4846
     89 H46       -10.6756   -6.8692   -2.0272 H         1 <0>         0.4194
     90 H47         1.8515   -6.8926    0.0654 H         1 <0>         0.4036
     91 H48         1.0115    3.3975   -1.0313 H         1 <0>         0.4114
     92 H49        -7.2229   -2.7477    0.7466 H         1 <0>         0.3944
@<TRIPOS>BOND
     1    1    3 ar
     2    1    5 ar
     3    2    4 ar
     4    2    5 ar
     5    3    6 ar
     6    4    6 ar
     7    5   21 1
     8    6   40 1
     9    7   15 1
    10    7   34 am
    11    7   37 2
    12    8   27 1
    13    8   31 am
    14    8   38 2
    15    9   28 1
    16    9   35 am
    17    9   39 2
    18   10   32 1
    19   10   33 1
    20   10   36 1
    21   11   12 1
    22   11   16 1
    23   12   18 1
    24   13   15 1
    25   13   16 1
    26   14   17 1
    27   14   18 1
    28   15   31 1
    29   16   17 1
    30   17   31 1
    31   18   41 1
    32   19   29 1
    33   20   29 1
    34   21   28 1
    35   22   23 1
    36   22   25 1
    37   23   30 1
    38   24   27 1
    39   24   29 1
    40   25   36 1
    41   26   30 1
    42   26   42 1
    43   27   35 1
    44   28   43 1
    45   30   34 1
    46    1   44 1
    47    2   45 1
    48    3   46 1
    49    4   47 1
    50   11   48 1
    51   11   49 1
    52   12   50 1
    53   12   51 1
    54   13   52 1
    55   13   53 1
    56   14   54 1
    57   14   55 1
    58   15   56 1
    59   16   57 1
    60   17   58 1
    61   18   59 1
    62   19   60 1
    63   19   61 1
    64   19   62 1
    65   20   63 1
    66   20   64 1
    67   20   65 1
    68   21   66 1
    69   21   67 1
    70   22   68 1
    71   22   69 1
    72   23   70 1
    73   23   71 1
    74   24   72 1
    75   24   73 1
    76   25   74 1
    77   25   75 1
    78   26   76 1
    79   26   77 1
    80   27   78 1
    81   28   79 1
    82   29   80 1
    83   30   81 1
    84   32   82 1
    85   32   83 1
    86   33   84 1
    87   33   85 1
    88   34   86 1
    89   35   87 1
    90   36   88 1
    91   40   89 1
    92   41   90 1
    93   42   91 1
    94   43   92 1
@<TRIPOS>MOLECULE
1a2c_ligand_62
   92    94     0     0     0
SMALL
USER_CHARGES

mmff94s_NoEstat = 108.66
@<TRIPOS>ATOM
      1 C1         -8.4286   -3.4392   -2.9028 C.ar      1 <0>        -0.0708
      2 C2         -6.6126   -4.0964   -4.3544 C.ar      1 <0>        -0.0872
      3 C3         -9.3452   -3.7607   -3.9040 C.ar      1 <0>        -0.2241
      4 C4         -7.5291   -4.4179   -5.3555 C.ar      1 <0>        -0.1600
      5 C5         -7.0747   -3.6114   -3.1414 C.ar      1 <0>        -0.1356
      6 C6         -8.8954   -4.2501   -5.1304 C.ar      1 <0>         0.1290
      7 C7         -0.1674   -1.0853   -0.0424 C.2       1 <0>         0.6664
      8 C8         -2.5997   -3.1326    0.7250 C.2       1 <0>         0.6651
      9 C9         -4.3299   -1.6044   -1.3634 C.2       1 <0>         0.6454
     10 C10         0.2119    6.5979   -0.6814 C.cat     1 <0>         0.6349
     11 C11         2.0445   -3.7524    0.2047 C.3       1 <0>        -0.0642
     12 C12         2.1951   -5.1517   -0.3975 C.3       1 <0>        -0.0747
     13 C13         0.7864   -2.3272    1.9103 C.3       1 <0>        -0.0873
     14 C14        -0.3466   -4.9962   -0.4055 C.3       1 <0>        -0.1371
     15 C15        -0.4770   -1.8334    1.2187 C.3       1 <0>         0.0360
     16 C16         1.0305   -3.7327    1.3503 C.3       1 <0>        -0.0720
     17 C17        -0.3661   -4.2312    0.9284 C.3       1 <0>         0.1201
     18 C18         0.8694   -5.9135   -0.5141 C.3       1 <0>         0.1453
     19 C19        -5.9631   -0.4404    1.7581 C.3       1 <0>        -0.0968
     20 C20        -3.8887    0.7550    2.4841 C.3       1 <0>        -0.0986
     21 C21        -6.0825   -3.2640   -2.0573 C.3       1 <0>        -0.0191
     22 C22        -0.3657    2.9388    0.0730 C.3       1 <0>        -0.1009
     23 C23         0.9718    2.4190   -0.4671 C.3       1 <0>        -0.0942
     24 C24        -3.8619   -1.7555    2.3678 C.3       1 <0>        -0.0988
     25 C25        -0.2710    4.4161    0.4476 C.3       1 <0>         0.1966
     26 C26         2.3035    0.4585   -1.4784 C.3       1 <0>         0.1128
     27 C27        -3.3800   -1.8574    0.9254 C.3       1 <0>         0.0786
     28 C28        -5.6231   -1.8048   -2.1437 C.3       1 <0>         0.0744
     29 C29        -4.7285   -0.5135    2.6578 C.3       1 <0>        -0.0678
     30 C30         0.9627    0.9465   -0.9241 C.3       1 <0>         0.1065
     31 N1         -1.2224   -3.0398    0.8850 N.am      1 <0>        -0.4315
     32 N2          0.5502    7.3118   -1.8263 N.pl3     1 <0>        -0.8671
     33 N3          0.0065    7.2851    0.5101 N.pl3     1 <0>        -0.8581
     34 N4          0.5562    0.0753    0.1551 N.am      1 <0>        -0.5687
     35 N5         -4.4491   -1.9660   -0.0233 N.am      1 <0>        -0.5746
     36 N6          0.0761    5.1992   -0.7144 N.pl3     1 <0>        -0.7533
     37 O1         -0.5544   -1.5275   -1.1177 O.2       1 <0>        -0.5843
     38 O2         -3.1933   -4.1752    0.4418 O.2       1 <0>        -0.6812
     39 O3         -3.3092   -1.1565   -1.8810 O.2       1 <0>        -0.5788
     40 O4         -9.7898   -4.5653   -6.1067 O.3       1 <0>        -0.4938
     41 O5          0.7872   -6.8901    0.5248 O.3       1 <0>        -0.6030
     42 O6          2.6815    1.2516   -2.5959 O.3       1 <0>        -0.5860
     43 O7         -6.6213   -0.9719   -1.5714 O.3       1 <0>        -0.6021
     44 H1         -8.7885   -3.0585   -1.9509 H         1 <0>         0.1412
     45 H2         -5.5498   -4.2307   -4.5386 H         1 <0>         0.1451
     46 H3        -10.4080   -3.6279   -3.7225 H         1 <0>         0.1336
     47 H4         -7.1725   -4.7996   -6.3086 H         1 <0>         0.1567
     48 H5          3.0220   -3.4003    0.5555 H         1 <0>         0.0649
     49 H6          1.7363   -3.0584   -0.5866 H         1 <0>         0.0476
     50 H7          2.6388   -5.0399   -1.3944 H         1 <0>         0.0641
     51 H8          2.9088   -5.7297    0.2024 H         1 <0>         0.0484
     52 H9          1.6439   -1.6583    1.7836 H         1 <0>         0.0596
     53 H10         0.5887   -2.4119    2.9867 H         1 <0>         0.0757
     54 H11        -1.2632   -5.5927   -0.4872 H         1 <0>         0.0782
     55 H12        -0.3526   -4.2949   -1.2498 H         1 <0>         0.0812
     56 H13        -1.0651   -1.1731    1.8629 H         1 <0>         0.0731
     57 H14         1.4245   -4.3763    2.1480 H         1 <0>         0.0511
     58 H15        -0.7725   -4.8823    1.7135 H         1 <0>         0.0753
     59 H16         0.8433   -6.4624   -1.4612 H         1 <0>         0.0427
     60 H17        -6.5181    0.4873    1.9352 H         1 <0>         0.0450
     61 H18        -6.6497   -1.2692    1.9547 H         1 <0>         0.0406
     62 H19        -5.6850   -0.4702    0.6992 H         1 <0>         0.0274
     63 H20        -3.5277    0.8553    1.4548 H         1 <0>         0.0476
     64 H21        -4.4764    1.6472    2.7254 H         1 <0>         0.0170
     65 H22        -3.0188    0.7404    3.1493 H         1 <0>         0.0477
     66 H23        -5.2172   -3.9361   -2.1324 H         1 <0>         0.0814
     67 H24        -6.5443   -3.4784   -1.0853 H         1 <0>         0.0685
     68 H25        -1.1525    2.8103   -0.6795 H         1 <0>         0.1016
     69 H26        -0.6706    2.3600    0.9531 H         1 <0>         0.0660
     70 H27         1.7402    2.5418    0.3082 H         1 <0>         0.0512
     71 H28         1.2882    3.0521   -1.3060 H         1 <0>         0.0454
     72 H29        -2.9928   -1.7573    3.0396 H         1 <0>         0.0575
     73 H30        -4.4407   -2.6540    2.6237 H         1 <0>         0.0743
     74 H31         0.4908    4.5641    1.2204 H         1 <0>         0.0662
     75 H32        -1.2260    4.7731    0.8467 H         1 <0>         0.0622
     76 H33         2.2598   -0.5896   -1.7925 H         1 <0>         0.0321
     77 H34         3.0888    0.5522   -0.7196 H         1 <0>         0.0204
     78 H35        -2.7366   -1.0282    0.6336 H         1 <0>         0.0749
     79 H36        -5.4683   -1.4913   -3.1829 H         1 <0>         0.0719
     80 H37        -5.0656   -0.5471    3.7011 H         1 <0>         0.0609
     81 H38         0.2159    0.8710   -1.7251 H         1 <0>         0.1063
     82 H39         0.7116    6.8520   -2.7184 H         1 <0>         0.4792
     83 H40         0.6487    8.3241   -1.8007 H         1 <0>         0.4819
     84 H41        -0.2418    6.7944    1.3657 H         1 <0>         0.4802
     85 H42         0.0982    8.2971    0.5568 H         1 <0>         0.4826
     86 H43         0.8147    0.3282    1.1041 H         1 <0>         0.3101
     87 H44        -5.3471   -2.3283    0.3008 H         1 <0>         0.3087
     88 H45         0.2389    4.7426   -1.6201 H         1 <0>         0.4846
     89 H46       -10.5620   -3.9795   -6.0573 H         1 <0>         0.4194
     90 H47         1.3049   -6.5470    1.2701 H         1 <0>         0.4036
     91 H48         2.1897    0.9107   -3.3603 H         1 <0>         0.4114
     92 H49        -7.4309   -1.5047   -1.5105 H         1 <0>         0.3944
@<TRIPOS>BOND
     1    1    3 ar
     2    1    5 ar
     3    2    4 ar
     4    2    5 ar
     5    3    6 ar
     6    4    6 ar
     7    5   21 1
     8    6   40 1
     9    7   15 1
    10    7   34 am
    11    7   37 2
    12    8   27 1
    13    8   31 am
    14    8   38 2
    15    9   28 1
    16    9   35 am
    17    9   39 2
    18   10   32 1
    19   10   33 1
    20   10   36 1
    21   11   12 1
    22   11   16 1
    23   12   18 1
    24   13   15 1
    25   13   16 1
    26   14   17 1
    27   14   18 1
    28   15   31 1
    29   16   17 1
    30   17   31 1
    31   18   41 1
    32   19   29 1
    33   20   29 1
    34   21   28 1
    35   22   23 1
    36   22   25 1
    37   23   30 1
    38   24   27 1
    39   24   29 1
    40   25   36 1
    41   26   30 1
    42   26   42 1
    43   27   35 1
    44   28   43 1
    45   30   34 1
    46    1   44 1
    47    2   45 1
    48    3   46 1
    49    4   47 1
    50   11   48 1
    51   11   49 1
    52   12   50 1
    53   12   51 1
    54   13   52 1
    55   13   53 1
    56   14   54 1
    57   14   55 1
    58   15   56 1
    59   16   57 1
    60   17   58 1
    61   18   59 1
    62   19   60 1
    63   19   61 1
    64   19   62 1
    65   20   63 1
    66   20   64 1
    67   20   65 1
    68   21   66 1
    69   21   67 1
    70   22   68 1
    71   22   69 1
    72   23   70 1
    73   23   71 1
    74   24   72 1
    75   24   73 1
    76   25   74 1
    77   25   75 1
    78   26   76 1
    79   26   77 1
    80   27   78 1
    81   28   79 1
    82   29   80 1
    83   30   81 1
    84   32   82 1
    85   32   83 1
    86   33   84 1
    87   33   85 1
    88   34   86 1
    89   35   87 1
    90   36   88 1
    91   40   89 1
    92   41   90 1
    93   42   91 1
    94   43   92 1
@<TRIPOS>MOLECULE
1a2c_ligand_63
   92    94     0     0     0
SMALL
USER_CHARGES

mmff94s_NoEstat = 108.69
@<TRIPOS>ATOM
      1 C1         -8.1123   -5.1215    0.2464 C.ar      1 <0>        -0.0708
      2 C2         -6.5169   -6.0095   -1.3358 C.ar      1 <0>        -0.0872
      3 C3         -9.1310   -5.8431   -0.3759 C.ar      1 <0>        -0.2241
      4 C4         -7.5356   -6.7311   -1.9580 C.ar      1 <0>        -0.1600
      5 C5         -6.8190   -5.2144   -0.2419 C.ar      1 <0>        -0.1356
      6 C6         -8.8427   -6.6480   -1.4781 C.ar      1 <0>         0.1290
      7 C7         -0.0512   -1.0561    0.2993 C.2       1 <0>         0.6664
      8 C8         -1.8469   -3.0457    2.1630 C.2       1 <0>         0.6651
      9 C9         -4.1811   -2.4610    0.1870 C.2       1 <0>         0.6454
     10 C10        -2.0056    2.7787   -5.7609 C.cat     1 <0>         0.6349
     11 C11         2.5186   -3.1911    0.6823 C.3       1 <0>        -0.0642
     12 C12         2.4580   -4.6414    0.2376 C.3       1 <0>        -0.0747
     13 C13         1.4874   -1.4827    2.2418 C.3       1 <0>        -0.0873
     14 C14         0.4946   -5.0934    1.7133 C.3       1 <0>        -0.1371
     15 C15         0.0412   -1.4176    1.7503 C.3       1 <0>         0.0360
     16 C16         1.8865   -2.9529    2.0632 C.3       1 <0>        -0.0720
     17 C17         0.5665   -3.7001    2.3454 C.3       1 <0>         0.1201
     18 C18         1.0248   -5.1525    0.2868 C.3       1 <0>         0.1453
     19 C19        -5.3726   -0.5418    3.1302 C.3       1 <0>        -0.0968
     20 C20        -3.4397    1.0389    2.9738 C.3       1 <0>        -0.0986
     21 C21        -5.7160   -4.4337    0.4322 C.3       1 <0>        -0.0191
     22 C22         0.1864    2.9452   -2.6852 C.3       1 <0>        -0.1009
     23 C23         0.2513    2.2726   -1.3090 C.3       1 <0>        -0.0942
     24 C24        -2.9973   -1.3585    3.5851 C.3       1 <0>        -0.0988
     25 C25        -1.0020    2.4297   -3.4939 C.3       1 <0>         0.1966
     26 C26         1.7383    0.3016   -2.0469 C.3       1 <0>         0.1128
     27 C27        -2.7865   -1.8644    2.1628 C.3       1 <0>         0.0786
     28 C28        -5.5432   -3.0384   -0.1771 C.3       1 <0>         0.0744
     29 C29        -3.9969   -0.1898    3.6979 C.3       1 <0>        -0.0678
     30 C30         0.4555    0.7445   -1.3388 C.3       1 <0>         0.1065
     31 N1         -0.4979   -2.7598    1.9615 N.am      1 <0>        -0.4315
     32 N2         -1.9996    3.4228   -6.9937 N.pl3     1 <0>        -0.8671
     33 N3         -2.9898    1.8329   -5.4950 N.pl3     1 <0>        -0.8581
     34 N4          0.4455    0.1980   -0.0008 N.am      1 <0>        -0.5687
     35 N5         -3.9799   -2.3853    1.5634 N.am      1 <0>        -0.5746
     36 N6         -1.0347    3.0704   -4.7872 N.pl3     1 <0>        -0.7533
     37 O1         -0.5362   -1.8555   -0.4928 O.2       1 <0>        -0.5843
     38 O2         -2.2998   -4.1783    2.3409 O.2       1 <0>        -0.6812
     39 O3         -3.3708   -2.0954   -0.6616 O.2       1 <0>        -0.5788
     40 O4         -9.8364   -7.3534   -2.0842 O.3       1 <0>        -0.4938
     41 O5          0.9879   -6.5072   -0.1510 O.3       1 <0>        -0.6030
     42 O6          2.8703    0.8436   -1.3793 O.3       1 <0>        -0.5860
     43 O7         -6.5451   -2.1786    0.3468 O.3       1 <0>        -0.6021
     44 H1         -8.3466   -4.4971    1.1042 H         1 <0>         0.1412
     45 H2         -5.5013   -6.0806   -1.7164 H         1 <0>         0.1451
     46 H3        -10.1470   -5.7743    0.0027 H         1 <0>         0.1336
     47 H4         -7.3045   -7.3572   -2.8158 H         1 <0>         0.1567
     48 H5          3.5627   -2.8549    0.7003 H         1 <0>         0.0649
     49 H6          2.0259   -2.5829   -0.0837 H         1 <0>         0.0476
     50 H7          2.8567   -4.7427   -0.7790 H         1 <0>         0.0641
     51 H8          3.1032   -5.2618    0.8729 H         1 <0>         0.0484
     52 H9          2.1569   -0.7868    1.7257 H         1 <0>         0.0596
     53 H10         1.5124   -1.2395    3.3116 H         1 <0>         0.0757
     54 H11         1.0921   -5.7802    2.3299 H         1 <0>         0.0782
     55 H12        -0.5175   -5.5090    1.7393 H         1 <0>         0.0812
     56 H13        -0.5378   -0.6778    2.3126 H         1 <0>         0.0731
     57 H14         2.6304   -3.2407    2.8169 H         1 <0>         0.0511
     58 H15         0.4523   -3.8218    3.4319 H         1 <0>         0.0753
     59 H16         0.3841   -4.5700   -0.3844 H         1 <0>         0.0427
     60 H17        -6.0375    0.3284    3.1563 H         1 <0>         0.0450
     61 H18        -5.8542   -1.3328    3.7128 H         1 <0>         0.0406
     62 H19        -5.2988   -0.8789    2.0908 H         1 <0>         0.0274
     63 H20        -3.3028    0.8425    1.9049 H         1 <0>         0.0476
     64 H21        -4.1178    1.8926    3.0773 H         1 <0>         0.0170
     65 H22        -2.4708    1.3315    3.3922 H         1 <0>         0.0477
     66 H23        -4.7767   -4.9973    0.3545 H         1 <0>         0.0814
     67 H24        -5.9411   -4.3740    1.5044 H         1 <0>         0.0685
     68 H25         0.0968    4.0317   -2.5708 H         1 <0>         0.1016
     69 H26         1.1124    2.7598   -3.2426 H         1 <0>         0.0660
     70 H27        -0.6751    2.4928   -0.7614 H         1 <0>         0.0512
     71 H28         1.0606    2.7304   -0.7258 H         1 <0>         0.0454
     72 H29        -2.0302   -1.0518    4.0061 H         1 <0>         0.0575
     73 H30        -3.3514   -2.1846    4.2177 H         1 <0>         0.0743
     74 H31        -1.9392    2.6377   -2.9668 H         1 <0>         0.0662
     75 H32        -0.9302    1.3462   -3.6338 H         1 <0>         0.0622
     76 H33         1.7614    0.6251   -3.0928 H         1 <0>         0.0321
     77 H34         1.8289   -0.7905   -2.0281 H         1 <0>         0.0204
     78 H35        -2.3647   -1.1082    1.5019 H         1 <0>         0.0749
     79 H36        -5.6447   -3.0594   -1.2687 H         1 <0>         0.0719
     80 H37        -4.1195    0.0762    4.7551 H         1 <0>         0.0609
     81 H38        -0.3978    0.3245   -1.8868 H         1 <0>         0.1063
     82 H39        -1.3012    4.1221   -7.2314 H         1 <0>         0.4792
     83 H40        -2.7033    3.2110   -7.6973 H         1 <0>         0.4819
     84 H41        -3.0236    1.3433   -4.6041 H         1 <0>         0.4802
     85 H42        -3.7014    1.6051   -6.1852 H         1 <0>         0.4826
     86 H43         0.8216    0.7626    0.7549 H         1 <0>         0.3101
     87 H44        -4.7231   -2.7191    2.1790 H         1 <0>         0.3087
     88 H45        -0.3315    3.7766   -5.0361 H         1 <0>         0.4846
     89 H46       -10.6756   -6.8692   -2.0272 H         1 <0>         0.4194
     90 H47         1.8515   -6.8926    0.0654 H         1 <0>         0.4036
     91 H48         2.9636    1.7601   -1.6856 H         1 <0>         0.4114
     92 H49        -7.2229   -2.7477    0.7466 H         1 <0>         0.3944
@<TRIPOS>BOND
     1    1    3 ar
     2    1    5 ar
     3    2    4 ar
     4    2    5 ar
     5    3    6 ar
     6    4    6 ar
     7    5   21 1
     8    6   40 1
     9    7   15 1
    10    7   34 am
    11    7   37 2
    12    8   27 1
    13    8   31 am
    14    8   38 2
    15    9   28 1
    16    9   35 am
    17    9   39 2
    18   10   32 1
    19   10   33 1
    20   10   36 1
    21   11   12 1
    22   11   16 1
    23   12   18 1
    24   13   15 1
    25   13   16 1
    26   14   17 1
    27   14   18 1
    28   15   31 1
    29   16   17 1
    30   17   31 1
    31   18   41 1
    32   19   29 1
    33   20   29 1
    34   21   28 1
    35   22   23 1
    36   22   25 1
    37   23   30 1
    38   24   27 1
    39   24   29 1
    40   25   36 1
    41   26   30 1
    42   26   42 1
    43   27   35 1
    44   28   43 1
    45   30   34 1
    46    1   44 1
    47    2   45 1
    48    3   46 1
    49    4   47 1
    50   11   48 1
    51   11   49 1
    52   12   50 1
    53   12   51 1
    54   13   52 1
    55   13   53 1
    56   14   54 1
    57   14   55 1
    58   15   56 1
    59   16   57 1
    60   17   58 1
    61   18   59 1
    62   19   60 1
    63   19   61 1
    64   19   62 1
    65   20   63 1
    66   20   64 1
    67   20   65 1
    68   21   66 1
    69   21   67 1
    70   22   68 1
    71   22   69 1
    72   23   70 1
    73   23   71 1
    74   24   72 1
    75   24   73 1
    76   25   74 1
    77   25   75 1
    78   26   76 1
    79   26   77 1
    80   27   78 1
    81   28   79 1
    82   29   80 1
    83   30   81 1
    84   32   82 1
    85   32   83 1
    86   33   84 1
    87   33   85 1
    88   34   86 1
    89   35   87 1
    90   36   88 1
    91   40   89 1
    92   41   90 1
    93   42   91 1
    94   43   92 1
@<TRIPOS>MOLECULE
1a2c_ligand_64
   92    94     0     0     0
SMALL
USER_CHARGES

mmff94s_NoEstat = 108.90
@<TRIPOS>ATOM
      1 C1         -7.7594   -0.6221    0.4299 C.ar      1 <0>        -0.0708
      2 C2         -5.6879    0.2837   -0.4219 C.ar      1 <0>        -0.0872
      3 C3         -8.0094    0.5771    1.0970 C.ar      1 <0>        -0.2241
      4 C4         -5.9379    1.4829    0.2452 C.ar      1 <0>        -0.1600
      5 C5         -6.6020   -0.7527   -0.3206 C.ar      1 <0>        -0.1356
      6 C6         -7.0987    1.6297    1.0046 C.ar      1 <0>         0.1290
      7 C7         -0.0512   -1.0561    0.2993 C.2       1 <0>         0.6664
      8 C8         -1.8469   -3.0457    2.1630 C.2       1 <0>         0.6651
      9 C9         -4.1811   -2.4610    0.1870 C.2       1 <0>         0.6454
     10 C10         1.3207    6.3794   -1.5847 C.cat     1 <0>         0.6349
     11 C11         2.5186   -3.1911    0.6823 C.3       1 <0>        -0.0642
     12 C12         2.4580   -4.6414    0.2376 C.3       1 <0>        -0.0747
     13 C13         1.4874   -1.4827    2.2418 C.3       1 <0>        -0.0873
     14 C14         0.4946   -5.0934    1.7133 C.3       1 <0>        -0.1371
     15 C15         0.0412   -1.4176    1.7503 C.3       1 <0>         0.0360
     16 C16         1.8865   -2.9529    2.0632 C.3       1 <0>        -0.0720
     17 C17         0.5665   -3.7001    2.3454 C.3       1 <0>         0.1201
     18 C18         1.0248   -5.1525    0.2868 C.3       1 <0>         0.1453
     19 C19        -5.3726   -0.5418    3.1302 C.3       1 <0>        -0.0968
     20 C20        -3.4397    1.0389    2.9738 C.3       1 <0>        -0.0986
     21 C21        -6.3317   -2.0507   -1.0434 C.3       1 <0>        -0.0191
     22 C22         0.1864    2.9452   -2.6852 C.3       1 <0>        -0.1009
     23 C23         0.2513    2.2726   -1.3090 C.3       1 <0>        -0.0942
     24 C24        -2.9973   -1.3585    3.5851 C.3       1 <0>        -0.0988
     25 C25         0.0377    4.4591   -2.5512 C.3       1 <0>         0.1966
     26 C26         1.7383    0.3016   -2.0469 C.3       1 <0>         0.1128
     27 C27        -2.7865   -1.8644    2.1628 C.3       1 <0>         0.0786
     28 C28        -5.5432   -3.0384   -0.1771 C.3       1 <0>         0.0744
     29 C29        -3.9969   -0.1898    3.6979 C.3       1 <0>        -0.0678
     30 C30         0.4555    0.7445   -1.3388 C.3       1 <0>         0.1065
     31 N1         -0.4979   -2.7598    1.9615 N.am      1 <0>        -0.4315
     32 N2          2.4271    6.8614   -0.8930 N.pl3     1 <0>        -0.8671
     33 N3          0.3545    7.2764   -2.0275 N.pl3     1 <0>        -0.8581
     34 N4          0.4455    0.1980   -0.0008 N.am      1 <0>        -0.5687
     35 N5         -3.9799   -2.3853    1.5634 N.am      1 <0>        -0.5746
     36 N6          1.1689    5.0055   -1.8399 N.pl3     1 <0>        -0.7533
     37 O1         -0.5362   -1.8555   -0.4928 O.2       1 <0>        -0.5843
     38 O2         -2.2998   -4.1783    2.3409 O.2       1 <0>        -0.6812
     39 O3         -3.3708   -2.0954   -0.6616 O.2       1 <0>        -0.5788
     40 O4         -7.3435    2.8004    1.6543 O.3       1 <0>        -0.4938
     41 O5          0.9879   -6.5072   -0.1510 O.3       1 <0>        -0.6030
     42 O6          2.8703    0.8436   -1.3793 O.3       1 <0>        -0.5860
     43 O7         -5.3363   -4.2353   -0.9135 O.3       1 <0>        -0.6021
     44 H1         -8.4746   -1.4364    0.5079 H         1 <0>         0.1412
     45 H2         -4.7810    0.1784   -1.0117 H         1 <0>         0.1451
     46 H3         -8.9153    0.6853    1.6869 H         1 <0>         0.1336
     47 H4         -5.2250    2.2997    0.1686 H         1 <0>         0.1567
     48 H5          3.5627   -2.8549    0.7003 H         1 <0>         0.0649
     49 H6          2.0259   -2.5829   -0.0837 H         1 <0>         0.0476
     50 H7          2.8567   -4.7427   -0.7790 H         1 <0>         0.0641
     51 H8          3.1032   -5.2618    0.8729 H         1 <0>         0.0484
     52 H9          2.1569   -0.7868    1.7257 H         1 <0>         0.0596
     53 H10         1.5124   -1.2395    3.3116 H         1 <0>         0.0757
     54 H11         1.0921   -5.7802    2.3299 H         1 <0>         0.0782
     55 H12        -0.5175   -5.5090    1.7393 H         1 <0>         0.0812
     56 H13        -0.5378   -0.6778    2.3126 H         1 <0>         0.0731
     57 H14         2.6304   -3.2407    2.8169 H         1 <0>         0.0511
     58 H15         0.4523   -3.8218    3.4319 H         1 <0>         0.0753
     59 H16         0.3841   -4.5700   -0.3844 H         1 <0>         0.0427
     60 H17        -6.0375    0.3284    3.1563 H         1 <0>         0.0450
     61 H18        -5.8542   -1.3328    3.7128 H         1 <0>         0.0406
     62 H19        -5.2988   -0.8789    2.0908 H         1 <0>         0.0274
     63 H20        -3.3028    0.8425    1.9049 H         1 <0>         0.0476
     64 H21        -4.1178    1.8926    3.0773 H         1 <0>         0.0170
     65 H22        -2.4708    1.3315    3.3922 H         1 <0>         0.0477
     66 H23        -5.7806   -1.8391   -1.9695 H         1 <0>         0.0814
     67 H24        -7.2926   -2.4771   -1.3579 H         1 <0>         0.0685
     68 H25         1.0953    2.7243   -3.2569 H         1 <0>         0.1016
     69 H26        -0.6566    2.5474   -3.2629 H         1 <0>         0.0660
     70 H27        -0.6751    2.4928   -0.7614 H         1 <0>         0.0512
     71 H28         1.0606    2.7304   -0.7258 H         1 <0>         0.0454
     72 H29        -2.0302   -1.0518    4.0061 H         1 <0>         0.0575
     73 H30        -3.3514   -2.1846    4.2177 H         1 <0>         0.0743
     74 H31        -0.8805    4.7040   -2.0069 H         1 <0>         0.0662
     75 H32        -0.0236    4.9278   -3.5387 H         1 <0>         0.0622
     76 H33         1.7614    0.6251   -3.0928 H         1 <0>         0.0321
     77 H34         1.8289   -0.7905   -2.0281 H         1 <0>         0.0204
     78 H35        -2.3647   -1.1082    1.5019 H         1 <0>         0.0749
     79 H36        -6.0846   -3.2900    0.7426 H         1 <0>         0.0719
     80 H37        -4.1195    0.0762    4.7551 H         1 <0>         0.0609
     81 H38        -0.3978    0.3245   -1.8868 H         1 <0>         0.1063
     82 H39         3.1571    6.2432   -0.5490 H         1 <0>         0.4792
     83 H40         2.5354    7.8560   -0.7085 H         1 <0>         0.4819
     84 H41        -0.4668    6.9581   -2.5360 H         1 <0>         0.4802
     85 H42         0.4445    8.2748   -1.8551 H         1 <0>         0.4826
     86 H43         0.8216    0.7626    0.7549 H         1 <0>         0.3101
     87 H44        -4.7231   -2.7191    2.1790 H         1 <0>         0.3087
     88 H45         1.9118    4.3881   -1.4907 H         1 <0>         0.4846
     89 H46        -7.8291    2.6330    2.4777 H         1 <0>         0.4194
     90 H47         1.8515   -6.8926    0.0654 H         1 <0>         0.4036
     91 H48         2.9636    1.7601   -1.6856 H         1 <0>         0.4114
     92 H49        -5.9568   -4.2165   -1.6604 H         1 <0>         0.3944
@<TRIPOS>BOND
     1    1    3 ar
     2    1    5 ar
     3    2    4 ar
     4    2    5 ar
     5    3    6 ar
     6    4    6 ar
     7    5   21 1
     8    6   40 1
     9    7   15 1
    10    7   34 am
    11    7   37 2
    12    8   27 1
    13    8   31 am
    14    8   38 2
    15    9   28 1
    16    9   35 am
    17    9   39 2
    18   10   32 1
    19   10   33 1
    20   10   36 1
    21   11   12 1
    22   11   16 1
    23   12   18 1
    24   13   15 1
    25   13   16 1
    26   14   17 1
    27   14   18 1
    28   15   31 1
    29   16   17 1
    30   17   31 1
    31   18   41 1
    32   19   29 1
    33   20   29 1
    34   21   28 1
    35   22   23 1
    36   22   25 1
    37   23   30 1
    38   24   27 1
    39   24   29 1
    40   25   36 1
    41   26   30 1
    42   26   42 1
    43   27   35 1
    44   28   43 1
    45   30   34 1
    46    1   44 1
    47    2   45 1
    48    3   46 1
    49    4   47 1
    50   11   48 1
    51   11   49 1
    52   12   50 1
    53   12   51 1
    54   13   52 1
    55   13   53 1
    56   14   54 1
    57   14   55 1
    58   15   56 1
    59   16   57 1
    60   17   58 1
    61   18   59 1
    62   19   60 1
    63   19   61 1
    64   19   62 1
    65   20   63 1
    66   20   64 1
    67   20   65 1
    68   21   66 1
    69   21   67 1
    70   22   68 1
    71   22   69 1
    72   23   70 1
    73   23   71 1
    74   24   72 1
    75   24   73 1
    76   25   74 1
    77   25   75 1
    78   26   76 1
    79   26   77 1
    80   27   78 1
    81   28   79 1
    82   29   80 1
    83   30   81 1
    84   32   82 1
    85   32   83 1
    86   33   84 1
    87   33   85 1
    88   34   86 1
    89   35   87 1
    90   36   88 1
    91   40   89 1
    92   41   90 1
    93   42   91 1
    94   43   92 1
@<TRIPOS>MOLECULE
1a2c_ligand_65
   92    94     0     0     0
SMALL
USER_CHARGES

mmff94s_NoEstat = 109.06
@<TRIPOS>ATOM
      1 C1         -8.5516    0.4596   -1.7234 C.ar      1 <0>        -0.0708
      2 C2         -6.5784    1.6634   -1.0203 C.ar      1 <0>        -0.0872
      3 C3         -9.3358    1.2599   -0.8927 C.ar      1 <0>        -0.2241
      4 C4         -7.3626    2.4638   -0.1897 C.ar      1 <0>        -0.1600
      5 C5         -7.1834    0.6721   -1.7761 C.ar      1 <0>        -0.1356
      6 C6         -8.7413    2.2621   -0.1258 C.ar      1 <0>         0.1290
      7 C7         -0.1674   -1.0853   -0.0424 C.2       1 <0>         0.6664
      8 C8         -2.5997   -3.1326    0.7250 C.2       1 <0>         0.6651
      9 C9         -4.5933   -1.1215   -1.1219 C.2       1 <0>         0.6454
     10 C10         1.0706    5.8665    1.9853 C.cat     1 <0>         0.6349
     11 C11         2.0445   -3.7524    0.2047 C.3       1 <0>        -0.0642
     12 C12         2.1951   -5.1517   -0.3975 C.3       1 <0>        -0.0747
     13 C13         0.7864   -2.3272    1.9103 C.3       1 <0>        -0.0873
     14 C14        -0.3466   -4.9962   -0.4055 C.3       1 <0>        -0.1371
     15 C15        -0.4770   -1.8334    1.2187 C.3       1 <0>         0.0360
     16 C16         1.0305   -3.7327    1.3503 C.3       1 <0>        -0.0720
     17 C17        -0.3661   -4.2312    0.9284 C.3       1 <0>         0.1201
     18 C18         0.8694   -5.9135   -0.5141 C.3       1 <0>         0.1453
     19 C19        -5.9631   -0.4404    1.7581 C.3       1 <0>        -0.0968
     20 C20        -3.8887    0.7550    2.4841 C.3       1 <0>        -0.0986
     21 C21        -6.3345   -0.1939   -2.6760 C.3       1 <0>        -0.0191
     22 C22        -0.3657    2.9388    0.0730 C.3       1 <0>        -0.1009
     23 C23         0.9718    2.4190   -0.4671 C.3       1 <0>        -0.0942
     24 C24        -3.8619   -1.7555    2.3678 C.3       1 <0>        -0.0988
     25 C25        -0.2710    4.4161    0.4476 C.3       1 <0>         0.1966
     26 C26         2.3035    0.4585   -1.4784 C.3       1 <0>         0.1128
     27 C27        -3.3800   -1.8574    0.9254 C.3       1 <0>         0.0786
     28 C28        -5.8260   -1.4472   -1.9560 C.3       1 <0>         0.0744
     29 C29        -4.7285   -0.5135    2.6578 C.3       1 <0>        -0.0678
     30 C30         0.9627    0.9465   -0.9241 C.3       1 <0>         0.1065
     31 N1         -1.2224   -3.0398    0.8850 N.am      1 <0>        -0.4315
     32 N2          2.0525    6.0013    2.9614 N.pl3     1 <0>        -0.8671
     33 N3          0.4090    7.0011    1.5281 N.pl3     1 <0>        -0.8581
     34 N4          0.5562    0.0753    0.1551 N.am      1 <0>        -0.5687
     35 N5         -4.4491   -1.9660   -0.0233 N.am      1 <0>        -0.5746
     36 N6          0.7415    4.6053    1.4592 N.pl3     1 <0>        -0.7533
     37 O1         -0.5544   -1.5275   -1.1177 O.2       1 <0>        -0.5843
     38 O2         -3.1933   -4.1752    0.4418 O.2       1 <0>        -0.6812
     39 O3         -3.8320   -0.1982   -1.4017 O.2       1 <0>        -0.5788
     40 O4         -9.5068    3.0441    0.6836 O.3       1 <0>        -0.4938
     41 O5          0.7872   -6.8901    0.5248 O.3       1 <0>        -0.6030
     42 O6          3.3063    0.5601   -0.4760 O.3       1 <0>        -0.5860
     43 O7         -5.4630   -2.4207   -2.9245 O.3       1 <0>        -0.6021
     44 H1         -9.0236   -0.3186   -2.3169 H         1 <0>         0.1412
     45 H2         -5.5048    1.8280   -1.0640 H         1 <0>         0.1451
     46 H3        -10.4091    1.0980   -0.8474 H         1 <0>         0.1336
     47 H4         -6.8937    3.2435    0.4047 H         1 <0>         0.1567
     48 H5          3.0220   -3.4003    0.5555 H         1 <0>         0.0649
     49 H6          1.7363   -3.0584   -0.5866 H         1 <0>         0.0476
     50 H7          2.6388   -5.0399   -1.3944 H         1 <0>         0.0641
     51 H8          2.9088   -5.7297    0.2024 H         1 <0>         0.0484
     52 H9          1.6439   -1.6583    1.7836 H         1 <0>         0.0596
     53 H10         0.5887   -2.4119    2.9867 H         1 <0>         0.0757
     54 H11        -1.2632   -5.5927   -0.4872 H         1 <0>         0.0782
     55 H12        -0.3526   -4.2949   -1.2498 H         1 <0>         0.0812
     56 H13        -1.0651   -1.1731    1.8629 H         1 <0>         0.0731
     57 H14         1.4245   -4.3763    2.1480 H         1 <0>         0.0511
     58 H15        -0.7725   -4.8823    1.7135 H         1 <0>         0.0753
     59 H16         0.8433   -6.4624   -1.4612 H         1 <0>         0.0427
     60 H17        -6.5181    0.4873    1.9352 H         1 <0>         0.0450
     61 H18        -6.6497   -1.2692    1.9547 H         1 <0>         0.0406
     62 H19        -5.6850   -0.4702    0.6992 H         1 <0>         0.0274
     63 H20        -3.5277    0.8553    1.4548 H         1 <0>         0.0476
     64 H21        -4.4764    1.6472    2.7254 H         1 <0>         0.0170
     65 H22        -3.0188    0.7404    3.1493 H         1 <0>         0.0477
     66 H23        -5.4866    0.3964   -3.0483 H         1 <0>         0.0814
     67 H24        -6.9273   -0.4570   -3.5611 H         1 <0>         0.0685
     68 H25        -1.1525    2.8103   -0.6795 H         1 <0>         0.1016
     69 H26        -0.6706    2.3600    0.9531 H         1 <0>         0.0660
     70 H27         1.7402    2.5418    0.3082 H         1 <0>         0.0512
     71 H28         1.2882    3.0521   -1.3060 H         1 <0>         0.0454
     72 H29        -2.9928   -1.7573    3.0396 H         1 <0>         0.0575
     73 H30        -4.4407   -2.6540    2.6237 H         1 <0>         0.0743
     74 H31        -1.2325    4.7733    0.8314 H         1 <0>         0.0662
     75 H32        -0.0162    5.0192   -0.4299 H         1 <0>         0.0622
     76 H33         2.6215    1.0387   -2.3510 H         1 <0>         0.0321
     77 H34         2.2342   -0.5935   -1.7781 H         1 <0>         0.0204
     78 H35        -2.7366   -1.0282    0.6336 H         1 <0>         0.0749
     79 H36        -6.5960   -1.8796   -1.3060 H         1 <0>         0.0719
     80 H37        -5.0656   -0.5471    3.7011 H         1 <0>         0.0609
     81 H38         0.2159    0.8710   -1.7251 H         1 <0>         0.1063
     82 H39         2.5606    5.2004    3.3268 H         1 <0>         0.4792
     83 H40         2.2892    6.9148    3.3417 H         1 <0>         0.4819
     84 H41        -0.3141    6.9385    0.8155 H         1 <0>         0.4802
     85 H42         0.6317    7.9238    1.8938 H         1 <0>         0.4826
     86 H43         0.8147    0.3282    1.1041 H         1 <0>         0.3101
     87 H44        -5.1428   -2.7027    0.1135 H         1 <0>         0.3087
     88 H45         1.2610    3.8016    1.8323 H         1 <0>         0.4846
     89 H46       -10.2616    2.5380    1.0243 H         1 <0>         0.4194
     90 H47         1.3049   -6.5470    1.2701 H         1 <0>         0.4036
     91 H48         3.5968    1.4864   -0.4636 H         1 <0>         0.4114
     92 H49        -5.8649   -2.1450   -3.7644 H         1 <0>         0.3944
@<TRIPOS>BOND
     1    1    3 ar
     2    1    5 ar
     3    2    4 ar
     4    2    5 ar
     5    3    6 ar
     6    4    6 ar
     7    5   21 1
     8    6   40 1
     9    7   15 1
    10    7   34 am
    11    7   37 2
    12    8   27 1
    13    8   31 am
    14    8   38 2
    15    9   28 1
    16    9   35 am
    17    9   39 2
    18   10   32 1
    19   10   33 1
    20   10   36 1
    21   11   12 1
    22   11   16 1
    23   12   18 1
    24   13   15 1
    25   13   16 1
    26   14   17 1
    27   14   18 1
    28   15   31 1
    29   16   17 1
    30   17   31 1
    31   18   41 1
    32   19   29 1
    33   20   29 1
    34   21   28 1
    35   22   23 1
    36   22   25 1
    37   23   30 1
    38   24   27 1
    39   24   29 1
    40   25   36 1
    41   26   30 1
    42   26   42 1
    43   27   35 1
    44   28   43 1
    45   30   34 1
    46    1   44 1
    47    2   45 1
    48    3   46 1
    49    4   47 1
    50   11   48 1
    51   11   49 1
    52   12   50 1
    53   12   51 1
    54   13   52 1
    55   13   53 1
    56   14   54 1
    57   14   55 1
    58   15   56 1
    59   16   57 1
    60   17   58 1
    61   18   59 1
    62   19   60 1
    63   19   61 1
    64   19   62 1
    65   20   63 1
    66   20   64 1
    67   20   65 1
    68   21   66 1
    69   21   67 1
    70   22   68 1
    71   22   69 1
    72   23   70 1
    73   23   71 1
    74   24   72 1
    75   24   73 1
    76   25   74 1
    77   25   75 1
    78   26   76 1
    79   26   77 1
    80   27   78 1
    81   28   79 1
    82   29   80 1
    83   30   81 1
    84   32   82 1
    85   32   83 1
    86   33   84 1
    87   33   85 1
    88   34   86 1
    89   35   87 1
    90   36   88 1
    91   40   89 1
    92   41   90 1
    93   42   91 1
    94   43   92 1
@<TRIPOS>MOLECULE
1a2c_ligand_66
   92    94     0     0     0
SMALL
USER_CHARGES

mmff94s_NoEstat = 109.20
@<TRIPOS>ATOM
      1 C1         -8.2999   -1.2116    0.2497 C.ar      1 <0>        -0.0708
      2 C2         -6.3407    0.1900    0.0654 C.ar      1 <0>        -0.0872
      3 C3         -8.9301   -0.2301    1.0146 C.ar      1 <0>        -0.2241
      4 C4         -6.9709    1.1715    0.8303 C.ar      1 <0>        -0.1600
      5 C5         -7.0137   -0.9884   -0.2147 C.ar      1 <0>        -0.1356
      6 C6         -8.2656    0.9615    1.3049 C.ar      1 <0>         0.1290
      7 C7         -0.0512   -1.0561    0.2993 C.2       1 <0>         0.6664
      8 C8         -1.8469   -3.0457    2.1630 C.2       1 <0>         0.6651
      9 C9         -4.1811   -2.4610    0.1870 C.2       1 <0>         0.6454
     10 C10        -4.7698    2.2135   -3.1337 C.cat     1 <0>         0.6349
     11 C11         2.5186   -3.1911    0.6823 C.3       1 <0>        -0.0642
     12 C12         2.4580   -4.6414    0.2376 C.3       1 <0>        -0.0747
     13 C13         1.4874   -1.4827    2.2418 C.3       1 <0>        -0.0873
     14 C14         0.4946   -5.0934    1.7133 C.3       1 <0>        -0.1371
     15 C15         0.0412   -1.4176    1.7503 C.3       1 <0>         0.0360
     16 C16         1.8865   -2.9529    2.0632 C.3       1 <0>        -0.0720
     17 C17         0.5665   -3.7001    2.3454 C.3       1 <0>         0.1201
     18 C18         1.0248   -5.1525    0.2868 C.3       1 <0>         0.1453
     19 C19        -5.3726   -0.5418    3.1302 C.3       1 <0>        -0.0968
     20 C20        -3.4397    1.0389    2.9738 C.3       1 <0>        -0.0986
     21 C21        -6.3317   -2.0507   -1.0434 C.3       1 <0>        -0.0191
     22 C22        -0.9951    2.0137   -3.0747 C.3       1 <0>        -0.1009
     23 C23        -0.8794    1.4488   -1.6540 C.3       1 <0>        -0.0942
     24 C24        -2.9973   -1.3585    3.5851 C.3       1 <0>        -0.0988
     25 C25        -2.3255    2.7368   -3.2725 C.3       1 <0>         0.1966
     26 C26         1.6856    1.6412   -1.5001 C.3       1 <0>         0.1128
     27 C27        -2.7865   -1.8644    2.1628 C.3       1 <0>         0.0786
     28 C28        -5.5432   -3.0384   -0.1771 C.3       1 <0>         0.0744
     29 C29        -3.9969   -0.1898    3.6979 C.3       1 <0>        -0.0678
     30 C30         0.4555    0.7445   -1.3388 C.3       1 <0>         0.1065
     31 N1         -0.4979   -2.7598    1.9615 N.am      1 <0>        -0.4315
     32 N2         -5.7943    1.2997   -2.9095 N.pl3     1 <0>        -0.8671
     33 N3         -5.0918    3.5293   -3.4484 N.pl3     1 <0>        -0.8581
     34 N4          0.4455    0.1980   -0.0008 N.am      1 <0>        -0.5687
     35 N5         -3.9799   -2.3853    1.5634 N.am      1 <0>        -0.5746
     36 N6         -3.4217    1.8252   -3.0463 N.pl3     1 <0>        -0.7533
     37 O1         -0.5362   -1.8555   -0.4928 O.2       1 <0>        -0.5843
     38 O2         -2.2998   -4.1783    2.3409 O.2       1 <0>        -0.6812
     39 O3         -3.3708   -2.0954   -0.6616 O.2       1 <0>        -0.5788
     40 O4         -8.8812    1.9200    2.0500 O.3       1 <0>        -0.4938
     41 O5          0.9879   -6.5072   -0.1510 O.3       1 <0>        -0.6030
     42 O6          1.5971    2.7470   -0.6113 O.3       1 <0>        -0.5860
     43 O7         -5.3363   -4.2353   -0.9135 O.3       1 <0>        -0.6021
     44 H1         -8.8255   -2.1367    0.0289 H         1 <0>         0.1412
     45 H2         -5.3318    0.3624   -0.3005 H         1 <0>         0.1451
     46 H3         -9.9386   -0.3995    1.3813 H         1 <0>         0.1336
     47 H4         -6.4483    2.0982    1.0523 H         1 <0>         0.1567
     48 H5          3.5627   -2.8549    0.7003 H         1 <0>         0.0649
     49 H6          2.0259   -2.5829   -0.0837 H         1 <0>         0.0476
     50 H7          2.8567   -4.7427   -0.7790 H         1 <0>         0.0641
     51 H8          3.1032   -5.2618    0.8729 H         1 <0>         0.0484
     52 H9          2.1569   -0.7868    1.7257 H         1 <0>         0.0596
     53 H10         1.5124   -1.2395    3.3116 H         1 <0>         0.0757
     54 H11         1.0921   -5.7802    2.3299 H         1 <0>         0.0782
     55 H12        -0.5175   -5.5090    1.7393 H         1 <0>         0.0812
     56 H13        -0.5378   -0.6778    2.3126 H         1 <0>         0.0731
     57 H14         2.6304   -3.2407    2.8169 H         1 <0>         0.0511
     58 H15         0.4523   -3.8218    3.4319 H         1 <0>         0.0753
     59 H16         0.3841   -4.5700   -0.3844 H         1 <0>         0.0427
     60 H17        -6.0375    0.3284    3.1563 H         1 <0>         0.0450
     61 H18        -5.8542   -1.3328    3.7128 H         1 <0>         0.0406
     62 H19        -5.2988   -0.8789    2.0908 H         1 <0>         0.0274
     63 H20        -3.3028    0.8425    1.9049 H         1 <0>         0.0476
     64 H21        -4.1178    1.8926    3.0773 H         1 <0>         0.0170
     65 H22        -2.4708    1.3315    3.3922 H         1 <0>         0.0477
     66 H23        -5.6623   -1.5677   -1.7677 H         1 <0>         0.0814
     67 H24        -7.0952   -2.5664   -1.6394 H         1 <0>         0.0685
     68 H25        -0.1747    2.7139   -3.2707 H         1 <0>         0.1016
     69 H26        -0.9072    1.2071   -3.8124 H         1 <0>         0.0660
     70 H27        -1.7000    0.7382   -1.4859 H         1 <0>         0.0512
     71 H28        -1.0340    2.2618   -0.9330 H         1 <0>         0.0454
     72 H29        -2.0302   -1.0518    4.0061 H         1 <0>         0.0575
     73 H30        -3.3514   -2.1846    4.2177 H         1 <0>         0.0743
     74 H31        -2.3940    3.1346   -4.2905 H         1 <0>         0.0662
     75 H32        -2.4118    3.5787   -2.5778 H         1 <0>         0.0622
     76 H33         1.7842    2.0214   -2.5223 H         1 <0>         0.0321
     77 H34         2.5988    1.0866   -1.2555 H         1 <0>         0.0204
     78 H35        -2.3647   -1.1082    1.5019 H         1 <0>         0.0749
     79 H36        -6.0846   -3.2900    0.7426 H         1 <0>         0.0719
     80 H37        -4.1195    0.0762    4.7551 H         1 <0>         0.0609
     81 H38         0.5463   -0.0881   -2.0483 H         1 <0>         0.1063
     82 H39        -5.6066    0.3277   -2.6788 H         1 <0>         0.4792
     83 H40        -6.7696    1.5821   -2.9737 H         1 <0>         0.4819
     84 H41        -4.3678    4.2231   -3.6185 H         1 <0>         0.4802
     85 H42        -6.0604    3.8326   -3.5158 H         1 <0>         0.4826
     86 H43         0.8216    0.7626    0.7549 H         1 <0>         0.3101
     87 H44        -4.7231   -2.7191    2.1790 H         1 <0>         0.3087
     88 H45        -3.2407    0.8418   -2.8107 H         1 <0>         0.4846
     89 H46        -9.4766    1.5112    2.6982 H         1 <0>         0.4194
     90 H47         1.8515   -6.8926    0.0654 H         1 <0>         0.4036
     91 H48         1.0115    3.3975   -1.0313 H         1 <0>         0.4114
     92 H49        -5.9568   -4.2165   -1.6604 H         1 <0>         0.3944
@<TRIPOS>BOND
     1    1    3 ar
     2    1    5 ar
     3    2    4 ar
     4    2    5 ar
     5    3    6 ar
     6    4    6 ar
     7    5   21 1
     8    6   40 1
     9    7   15 1
    10    7   34 am
    11    7   37 2
    12    8   27 1
    13    8   31 am
    14    8   38 2
    15    9   28 1
    16    9   35 am
    17    9   39 2
    18   10   32 1
    19   10   33 1
    20   10   36 1
    21   11   12 1
    22   11   16 1
    23   12   18 1
    24   13   15 1
    25   13   16 1
    26   14   17 1
    27   14   18 1
    28   15   31 1
    29   16   17 1
    30   17   31 1
    31   18   41 1
    32   19   29 1
    33   20   29 1
    34   21   28 1
    35   22   23 1
    36   22   25 1
    37   23   30 1
    38   24   27 1
    39   24   29 1
    40   25   36 1
    41   26   30 1
    42   26   42 1
    43   27   35 1
    44   28   43 1
    45   30   34 1
    46    1   44 1
    47    2   45 1
    48    3   46 1
    49    4   47 1
    50   11   48 1
    51   11   49 1
    52   12   50 1
    53   12   51 1
    54   13   52 1
    55   13   53 1
    56   14   54 1
    57   14   55 1
    58   15   56 1
    59   16   57 1
    60   17   58 1
    61   18   59 1
    62   19   60 1
    63   19   61 1
    64   19   62 1
    65   20   63 1
    66   20   64 1
    67   20   65 1
    68   21   66 1
    69   21   67 1
    70   22   68 1
    71   22   69 1
    72   23   70 1
    73   23   71 1
    74   24   72 1
    75   24   73 1
    76   25   74 1
    77   25   75 1
    78   26   76 1
    79   26   77 1
    80   27   78 1
    81   28   79 1
    82   29   80 1
    83   30   81 1
    84   32   82 1
    85   32   83 1
    86   33   84 1
    87   33   85 1
    88   34   86 1
    89   35   87 1
    90   36   88 1
    91   40   89 1
    92   41   90 1
    93   42   91 1
    94   43   92 1
@<TRIPOS>MOLECULE
1a2c_ligand_67
   92    94     0     0     0
SMALL
USER_CHARGES

mmff94s_NoEstat = 109.23
@<TRIPOS>ATOM
      1 C1         -7.7594   -0.6221    0.4299 C.ar      1 <0>        -0.0708
      2 C2         -5.6879    0.2837   -0.4219 C.ar      1 <0>        -0.0872
      3 C3         -8.0094    0.5771    1.0970 C.ar      1 <0>        -0.2241
      4 C4         -5.9379    1.4829    0.2452 C.ar      1 <0>        -0.1600
      5 C5         -6.6020   -0.7527   -0.3206 C.ar      1 <0>        -0.1356
      6 C6         -7.0987    1.6297    1.0046 C.ar      1 <0>         0.1290
      7 C7         -0.0512   -1.0561    0.2993 C.2       1 <0>         0.6664
      8 C8         -1.8469   -3.0457    2.1630 C.2       1 <0>         0.6651
      9 C9         -4.1811   -2.4610    0.1870 C.2       1 <0>         0.6454
     10 C10        -2.0056    2.7787   -5.7609 C.cat     1 <0>         0.6349
     11 C11         2.5186   -3.1911    0.6823 C.3       1 <0>        -0.0642
     12 C12         2.4580   -4.6414    0.2376 C.3       1 <0>        -0.0747
     13 C13         1.4874   -1.4827    2.2418 C.3       1 <0>        -0.0873
     14 C14         0.4946   -5.0934    1.7133 C.3       1 <0>        -0.1371
     15 C15         0.0412   -1.4176    1.7503 C.3       1 <0>         0.0360
     16 C16         1.8865   -2.9529    2.0632 C.3       1 <0>        -0.0720
     17 C17         0.5665   -3.7001    2.3454 C.3       1 <0>         0.1201
     18 C18         1.0248   -5.1525    0.2868 C.3       1 <0>         0.1453
     19 C19        -5.3726   -0.5418    3.1302 C.3       1 <0>        -0.0968
     20 C20        -3.4397    1.0389    2.9738 C.3       1 <0>        -0.0986
     21 C21        -6.3317   -2.0507   -1.0434 C.3       1 <0>        -0.0191
     22 C22         0.1864    2.9452   -2.6852 C.3       1 <0>        -0.1009
     23 C23         0.2513    2.2726   -1.3090 C.3       1 <0>        -0.0942
     24 C24        -2.9973   -1.3585    3.5851 C.3       1 <0>        -0.0988
     25 C25        -1.0020    2.4297   -3.4939 C.3       1 <0>         0.1966
     26 C26         1.7383    0.3016   -2.0469 C.3       1 <0>         0.1128
     27 C27        -2.7865   -1.8644    2.1628 C.3       1 <0>         0.0786
     28 C28        -5.5432   -3.0384   -0.1771 C.3       1 <0>         0.0744
     29 C29        -3.9969   -0.1898    3.6979 C.3       1 <0>        -0.0678
     30 C30         0.4555    0.7445   -1.3388 C.3       1 <0>         0.1065
     31 N1         -0.4979   -2.7598    1.9615 N.am      1 <0>        -0.4315
     32 N2         -1.9996    3.4228   -6.9937 N.pl3     1 <0>        -0.8671
     33 N3         -2.9898    1.8329   -5.4950 N.pl3     1 <0>        -0.8581
     34 N4          0.4455    0.1980   -0.0008 N.am      1 <0>        -0.5687
     35 N5         -3.9799   -2.3853    1.5634 N.am      1 <0>        -0.5746
     36 N6         -1.0347    3.0704   -4.7872 N.pl3     1 <0>        -0.7533
     37 O1         -0.5362   -1.8555   -0.4928 O.2       1 <0>        -0.5843
     38 O2         -2.2998   -4.1783    2.3409 O.2       1 <0>        -0.6812
     39 O3         -3.3708   -2.0954   -0.6616 O.2       1 <0>        -0.5788
     40 O4         -7.3435    2.8004    1.6543 O.3       1 <0>        -0.4938
     41 O5          0.9879   -6.5072   -0.1510 O.3       1 <0>        -0.6030
     42 O6          2.8703    0.8436   -1.3793 O.3       1 <0>        -0.5860
     43 O7         -5.3363   -4.2353   -0.9135 O.3       1 <0>        -0.6021
     44 H1         -8.4746   -1.4364    0.5079 H         1 <0>         0.1412
     45 H2         -4.7810    0.1784   -1.0117 H         1 <0>         0.1451
     46 H3         -8.9153    0.6853    1.6869 H         1 <0>         0.1336
     47 H4         -5.2250    2.2997    0.1686 H         1 <0>         0.1567
     48 H5          3.5627   -2.8549    0.7003 H         1 <0>         0.0649
     49 H6          2.0259   -2.5829   -0.0837 H         1 <0>         0.0476
     50 H7          2.8567   -4.7427   -0.7790 H         1 <0>         0.0641
     51 H8          3.1032   -5.2618    0.8729 H         1 <0>         0.0484
     52 H9          2.1569   -0.7868    1.7257 H         1 <0>         0.0596
     53 H10         1.5124   -1.2395    3.3116 H         1 <0>         0.0757
     54 H11         1.0921   -5.7802    2.3299 H         1 <0>         0.0782
     55 H12        -0.5175   -5.5090    1.7393 H         1 <0>         0.0812
     56 H13        -0.5378   -0.6778    2.3126 H         1 <0>         0.0731
     57 H14         2.6304   -3.2407    2.8169 H         1 <0>         0.0511
     58 H15         0.4523   -3.8218    3.4319 H         1 <0>         0.0753
     59 H16         0.3841   -4.5700   -0.3844 H         1 <0>         0.0427
     60 H17        -6.0375    0.3284    3.1563 H         1 <0>         0.0450
     61 H18        -5.8542   -1.3328    3.7128 H         1 <0>         0.0406
     62 H19        -5.2988   -0.8789    2.0908 H         1 <0>         0.0274
     63 H20        -3.3028    0.8425    1.9049 H         1 <0>         0.0476
     64 H21        -4.1178    1.8926    3.0773 H         1 <0>         0.0170
     65 H22        -2.4708    1.3315    3.3922 H         1 <0>         0.0477
     66 H23        -5.7806   -1.8391   -1.9695 H         1 <0>         0.0814
     67 H24        -7.2926   -2.4771   -1.3579 H         1 <0>         0.0685
     68 H25         0.0968    4.0317   -2.5708 H         1 <0>         0.1016
     69 H26         1.1124    2.7598   -3.2426 H         1 <0>         0.0660
     70 H27        -0.6751    2.4928   -0.7614 H         1 <0>         0.0512
     71 H28         1.0606    2.7304   -0.7258 H         1 <0>         0.0454
     72 H29        -2.0302   -1.0518    4.0061 H         1 <0>         0.0575
     73 H30        -3.3514   -2.1846    4.2177 H         1 <0>         0.0743
     74 H31        -1.9392    2.6377   -2.9668 H         1 <0>         0.0662
     75 H32        -0.9302    1.3462   -3.6338 H         1 <0>         0.0622
     76 H33         1.7614    0.6251   -3.0928 H         1 <0>         0.0321
     77 H34         1.8289   -0.7905   -2.0281 H         1 <0>         0.0204
     78 H35        -2.3647   -1.1082    1.5019 H         1 <0>         0.0749
     79 H36        -6.0846   -3.2900    0.7426 H         1 <0>         0.0719
     80 H37        -4.1195    0.0762    4.7551 H         1 <0>         0.0609
     81 H38        -0.3978    0.3245   -1.8868 H         1 <0>         0.1063
     82 H39        -1.3012    4.1221   -7.2314 H         1 <0>         0.4792
     83 H40        -2.7033    3.2110   -7.6973 H         1 <0>         0.4819
     84 H41        -3.0236    1.3433   -4.6041 H         1 <0>         0.4802
     85 H42        -3.7014    1.6051   -6.1852 H         1 <0>         0.4826
     86 H43         0.8216    0.7626    0.7549 H         1 <0>         0.3101
     87 H44        -4.7231   -2.7191    2.1790 H         1 <0>         0.3087
     88 H45        -0.3315    3.7766   -5.0361 H         1 <0>         0.4846
     89 H46        -7.8291    2.6330    2.4777 H         1 <0>         0.4194
     90 H47         1.8515   -6.8926    0.0654 H         1 <0>         0.4036
     91 H48         2.9636    1.7601   -1.6856 H         1 <0>         0.4114
     92 H49        -5.9568   -4.2165   -1.6604 H         1 <0>         0.3944
@<TRIPOS>BOND
     1    1    3 ar
     2    1    5 ar
     3    2    4 ar
     4    2    5 ar
     5    3    6 ar
     6    4    6 ar
     7    5   21 1
     8    6   40 1
     9    7   15 1
    10    7   34 am
    11    7   37 2
    12    8   27 1
    13    8   31 am
    14    8   38 2
    15    9   28 1
    16    9   35 am
    17    9   39 2
    18   10   32 1
    19   10   33 1
    20   10   36 1
    21   11   12 1
    22   11   16 1
    23   12   18 1
    24   13   15 1
    25   13   16 1
    26   14   17 1
    27   14   18 1
    28   15   31 1
    29   16   17 1
    30   17   31 1
    31   18   41 1
    32   19   29 1
    33   20   29 1
    34   21   28 1
    35   22   23 1
    36   22   25 1
    37   23   30 1
    38   24   27 1
    39   24   29 1
    40   25   36 1
    41   26   30 1
    42   26   42 1
    43   27   35 1
    44   28   43 1
    45   30   34 1
    46    1   44 1
    47    2   45 1
    48    3   46 1
    49    4   47 1
    50   11   48 1
    51   11   49 1
    52   12   50 1
    53   12   51 1
    54   13   52 1
    55   13   53 1
    56   14   54 1
    57   14   55 1
    58   15   56 1
    59   16   57 1
    60   17   58 1
    61   18   59 1
    62   19   60 1
    63   19   61 1
    64   19   62 1
    65   20   63 1
    66   20   64 1
    67   20   65 1
    68   21   66 1
    69   21   67 1
    70   22   68 1
    71   22   69 1
    72   23   70 1
    73   23   71 1
    74   24   72 1
    75   24   73 1
    76   25   74 1
    77   25   75 1
    78   26   76 1
    79   26   77 1
    80   27   78 1
    81   28   79 1
    82   29   80 1
    83   30   81 1
    84   32   82 1
    85   32   83 1
    86   33   84 1
    87   33   85 1
    88   34   86 1
    89   35   87 1
    90   36   88 1
    91   40   89 1
    92   41   90 1
    93   42   91 1
    94   43   92 1
@<TRIPOS>MOLECULE
1a2c_ligand_68
   92    94     0     0     0
SMALL
USER_CHARGES

mmff94s_NoEstat = 109.23
@<TRIPOS>ATOM
      1 C1         -8.6891   -1.0874    0.2432 C.ar      1 <0>        -0.0708
      2 C2         -6.8597    0.4829    0.0867 C.ar      1 <0>        -0.0872
      3 C3         -9.4297   -0.1524    0.9664 C.ar      1 <0>        -0.2241
      4 C4         -7.6003    1.4179    0.8099 C.ar      1 <0>        -0.1600
      5 C5         -7.4141   -0.7571   -0.1870 C.ar      1 <0>        -0.1356
      6 C6         -8.8853    1.1002    1.2498 C.ar      1 <0>         0.1290
      7 C7         -0.0512   -1.0561    0.2993 C.2       1 <0>         0.6664
      8 C8         -1.8469   -3.0457    2.1630 C.2       1 <0>         0.6651
      9 C9         -4.4743   -1.9575    0.3333 C.2       1 <0>         0.6454
     10 C10         4.3140   -0.8640   -5.2229 C.cat     1 <0>         0.6349
     11 C11         2.5186   -3.1911    0.6823 C.3       1 <0>        -0.0642
     12 C12         2.4580   -4.6414    0.2376 C.3       1 <0>        -0.0747
     13 C13         1.4874   -1.4827    2.2418 C.3       1 <0>        -0.0873
     14 C14         0.4946   -5.0934    1.7133 C.3       1 <0>        -0.1371
     15 C15         0.0412   -1.4176    1.7503 C.3       1 <0>         0.0360
     16 C16         1.8865   -2.9529    2.0632 C.3       1 <0>        -0.0720
     17 C17         0.5665   -3.7001    2.3454 C.3       1 <0>         0.1201
     18 C18         1.0248   -5.1525    0.2868 C.3       1 <0>         0.1453
     19 C19        -5.3726   -0.5418    3.1302 C.3       1 <0>        -0.0968
     20 C20        -3.4397    1.0389    2.9738 C.3       1 <0>        -0.0986
     21 C21        -6.6126   -1.7691   -0.9705 C.3       1 <0>        -0.0191
     22 C22         2.8091   -0.2380   -1.8118 C.3       1 <0>        -0.1009
     23 C23         1.3524   -0.0970   -2.2688 C.3       1 <0>        -0.0942
     24 C24        -2.9973   -1.3585    3.5851 C.3       1 <0>        -0.0988
     25 C25         3.6273   -1.0396   -2.8217 C.3       1 <0>         0.1966
     26 C26        -0.9878    0.8875   -1.8280 C.3       1 <0>         0.1128
     27 C27        -2.7865   -1.8644    2.1628 C.3       1 <0>         0.0786
     28 C28        -5.7663   -2.6636   -0.0588 C.3       1 <0>         0.0744
     29 C29        -3.9969   -0.1898    3.6979 C.3       1 <0>        -0.0678
     30 C30         0.4555    0.7445   -1.3388 C.3       1 <0>         0.1065
     31 N1         -0.4979   -2.7598    1.9615 N.am      1 <0>        -0.4315
     32 N2          4.2803   -0.1880   -6.4381 N.pl3     1 <0>        -0.8671
     33 N3          5.0441   -2.0434   -5.1232 N.pl3     1 <0>        -0.8581
     34 N4          0.4455    0.1980   -0.0008 N.am      1 <0>        -0.5687
     35 N5         -3.9799   -2.3853    1.5634 N.am      1 <0>        -0.5746
     36 N6          3.6234   -0.3721   -4.1018 N.pl3     1 <0>        -0.7533
     37 O1         -0.5362   -1.8555   -0.4928 O.2       1 <0>        -0.5843
     38 O2         -2.2998   -4.1783    2.3409 O.2       1 <0>        -0.6812
     39 O3         -3.9527   -1.0962   -0.3713 O.2       1 <0>        -0.5788
     40 O4         -9.6087    2.0131    1.9541 O.3       1 <0>        -0.4938
     41 O5          0.9879   -6.5072   -0.1510 O.3       1 <0>        -0.6030
     42 O6         -1.7287    1.6906   -0.9186 O.3       1 <0>        -0.5860
     43 O7         -5.4285   -3.8509   -0.7614 O.3       1 <0>        -0.6021
     44 H1         -9.1215   -2.0606    0.0275 H         1 <0>         0.1412
     45 H2         -5.8593    0.7393   -0.2523 H         1 <0>         0.1451
     46 H3        -10.4301   -0.4058    1.3062 H         1 <0>         0.1336
     47 H4         -7.1710    2.3925    1.0267 H         1 <0>         0.1567
     48 H5          3.5627   -2.8549    0.7003 H         1 <0>         0.0649
     49 H6          2.0259   -2.5829   -0.0837 H         1 <0>         0.0476
     50 H7          2.8567   -4.7427   -0.7790 H         1 <0>         0.0641
     51 H8          3.1032   -5.2618    0.8729 H         1 <0>         0.0484
     52 H9          2.1569   -0.7868    1.7257 H         1 <0>         0.0596
     53 H10         1.5124   -1.2395    3.3116 H         1 <0>         0.0757
     54 H11         1.0921   -5.7802    2.3299 H         1 <0>         0.0782
     55 H12        -0.5175   -5.5090    1.7393 H         1 <0>         0.0812
     56 H13        -0.5378   -0.6778    2.3126 H         1 <0>         0.0731
     57 H14         2.6304   -3.2407    2.8169 H         1 <0>         0.0511
     58 H15         0.4523   -3.8218    3.4319 H         1 <0>         0.0753
     59 H16         0.3841   -4.5700   -0.3844 H         1 <0>         0.0427
     60 H17        -6.0375    0.3284    3.1563 H         1 <0>         0.0450
     61 H18        -5.8542   -1.3328    3.7128 H         1 <0>         0.0406
     62 H19        -5.2988   -0.8789    2.0908 H         1 <0>         0.0274
     63 H20        -3.3028    0.8425    1.9049 H         1 <0>         0.0476
     64 H21        -4.1178    1.8926    3.0773 H         1 <0>         0.0170
     65 H22        -2.4708    1.3315    3.3922 H         1 <0>         0.0477
     66 H23        -5.9666   -1.2415   -1.6850 H         1 <0>         0.0814
     67 H24        -7.3067   -2.3638   -1.5776 H         1 <0>         0.0685
     68 H25         3.2637    0.7519   -1.6883 H         1 <0>         0.1016
     69 H26         2.8542   -0.7324   -0.8340 H         1 <0>         0.0660
     70 H27         0.9126   -1.0986   -2.3693 H         1 <0>         0.0512
     71 H28         1.3348    0.3408   -3.2751 H         1 <0>         0.0454
     72 H29        -2.0302   -1.0518    4.0061 H         1 <0>         0.0575
     73 H30        -3.3514   -2.1846    4.2177 H         1 <0>         0.0743
     74 H31         3.2070   -2.0439   -2.9397 H         1 <0>         0.0662
     75 H32         4.6614   -1.1478   -2.4785 H         1 <0>         0.0622
     76 H33        -1.4861   -0.0829   -1.9233 H         1 <0>         0.0321
     77 H34        -1.0136    1.3790   -2.8073 H         1 <0>         0.0204
     78 H35        -2.3647   -1.1082    1.5019 H         1 <0>         0.0749
     79 H36        -6.3120   -2.9453    0.8496 H         1 <0>         0.0719
     80 H37        -4.1195    0.0762    4.7551 H         1 <0>         0.0609
     81 H38         0.9010    1.7469   -1.2960 H         1 <0>         0.1063
     82 H39         3.7586    0.6761   -6.5582 H         1 <0>         0.4792
     83 H40         4.7802   -0.5455   -7.2489 H         1 <0>         0.4819
     84 H41         5.0901   -2.5628   -4.2499 H         1 <0>         0.4802
     85 H42         5.5525   -2.4170   -5.9211 H         1 <0>         0.4826
     86 H43         0.8216    0.7626    0.7549 H         1 <0>         0.3101
     87 H44        -4.4957   -3.1095    2.0656 H         1 <0>         0.3087
     88 H45         3.1004    0.5025   -4.2311 H         1 <0>         0.4846
     89 H46       -10.1852    1.5647    2.5931 H         1 <0>         0.4194
     90 H47         1.8515   -6.8926    0.0654 H         1 <0>         0.4036
     91 H48        -1.9874    1.1133   -0.1822 H         1 <0>         0.4114
     92 H49        -6.0237   -3.9035   -1.5269 H         1 <0>         0.3944
@<TRIPOS>BOND
     1    1    3 ar
     2    1    5 ar
     3    2    4 ar
     4    2    5 ar
     5    3    6 ar
     6    4    6 ar
     7    5   21 1
     8    6   40 1
     9    7   15 1
    10    7   34 am
    11    7   37 2
    12    8   27 1
    13    8   31 am
    14    8   38 2
    15    9   28 1
    16    9   35 am
    17    9   39 2
    18   10   32 1
    19   10   33 1
    20   10   36 1
    21   11   12 1
    22   11   16 1
    23   12   18 1
    24   13   15 1
    25   13   16 1
    26   14   17 1
    27   14   18 1
    28   15   31 1
    29   16   17 1
    30   17   31 1
    31   18   41 1
    32   19   29 1
    33   20   29 1
    34   21   28 1
    35   22   23 1
    36   22   25 1
    37   23   30 1
    38   24   27 1
    39   24   29 1
    40   25   36 1
    41   26   30 1
    42   26   42 1
    43   27   35 1
    44   28   43 1
    45   30   34 1
    46    1   44 1
    47    2   45 1
    48    3   46 1
    49    4   47 1
    50   11   48 1
    51   11   49 1
    52   12   50 1
    53   12   51 1
    54   13   52 1
    55   13   53 1
    56   14   54 1
    57   14   55 1
    58   15   56 1
    59   16   57 1
    60   17   58 1
    61   18   59 1
    62   19   60 1
    63   19   61 1
    64   19   62 1
    65   20   63 1
    66   20   64 1
    67   20   65 1
    68   21   66 1
    69   21   67 1
    70   22   68 1
    71   22   69 1
    72   23   70 1
    73   23   71 1
    74   24   72 1
    75   24   73 1
    76   25   74 1
    77   25   75 1
    78   26   76 1
    79   26   77 1
    80   27   78 1
    81   28   79 1
    82   29   80 1
    83   30   81 1
    84   32   82 1
    85   32   83 1
    86   33   84 1
    87   33   85 1
    88   34   86 1
    89   35   87 1
    90   36   88 1
    91   40   89 1
    92   41   90 1
    93   42   91 1
    94   43   92 1
@<TRIPOS>MOLECULE
1a2c_ligand_69
   92    94     0     0     0
SMALL
USER_CHARGES

mmff94s_NoEstat = 109.26
@<TRIPOS>ATOM
      1 C1         -8.4460   -3.1309   -1.9874 C.ar      1 <0>        -0.0708
      2 C2         -8.9583   -1.7012   -0.1084 C.ar      1 <0>        -0.0872
      3 C3         -9.7777   -3.5428   -2.0370 C.ar      1 <0>        -0.2241
      4 C4        -10.2900   -2.1132   -0.1580 C.ar      1 <0>        -0.1600
      5 C5         -8.0541   -2.2156   -1.0238 C.ar      1 <0>        -0.1356
      6 C6        -10.6997   -3.0340   -1.1223 C.ar      1 <0>         0.1290
      7 C7         -0.0512   -1.0561    0.2993 C.2       1 <0>         0.6664
      8 C8         -1.8469   -3.0457    2.1630 C.2       1 <0>         0.6651
      9 C9         -4.4743   -1.9575    0.3333 C.2       1 <0>         0.6454
     10 C10        -1.3546    6.1439   -1.7010 C.cat     1 <0>         0.6349
     11 C11         2.5186   -3.1911    0.6823 C.3       1 <0>        -0.0642
     12 C12         2.4580   -4.6414    0.2376 C.3       1 <0>        -0.0747
     13 C13         1.4874   -1.4827    2.2418 C.3       1 <0>        -0.0873
     14 C14         0.4946   -5.0934    1.7133 C.3       1 <0>        -0.1371
     15 C15         0.0412   -1.4176    1.7503 C.3       1 <0>         0.0360
     16 C16         1.8865   -2.9529    2.0632 C.3       1 <0>        -0.0720
     17 C17         0.5665   -3.7001    2.3454 C.3       1 <0>         0.1201
     18 C18         1.0248   -5.1525    0.2868 C.3       1 <0>         0.1453
     19 C19        -5.3726   -0.5418    3.1302 C.3       1 <0>        -0.0968
     20 C20        -3.4397    1.0389    2.9738 C.3       1 <0>        -0.0986
     21 C21        -6.6126   -1.7691   -0.9705 C.3       1 <0>        -0.0191
     22 C22        -0.5396    2.6263   -2.8210 C.3       1 <0>        -0.1009
     23 C23        -0.4337    2.0012   -1.4250 C.3       1 <0>        -0.0942
     24 C24        -2.9973   -1.3585    3.5851 C.3       1 <0>        -0.0988
     25 C25        -1.3940    3.8917   -2.7937 C.3       1 <0>         0.1966
     26 C26         1.9058    0.9774   -1.7696 C.3       1 <0>         0.1128
     27 C27        -2.7865   -1.8644    2.1628 C.3       1 <0>         0.0786
     28 C28        -5.7663   -2.6636   -0.0588 C.3       1 <0>         0.0744
     29 C29        -3.9969   -0.1898    3.6979 C.3       1 <0>        -0.0678
     30 C30         0.4555    0.7445   -1.3388 C.3       1 <0>         0.1065
     31 N1         -0.4979   -2.7598    1.9615 N.am      1 <0>        -0.4315
     32 N2         -0.7507    7.0530   -0.8386 N.pl3     1 <0>        -0.8671
     33 N3         -2.5221    6.5095   -2.3623 N.pl3     1 <0>        -0.8581
     34 N4          0.4455    0.1980   -0.0008 N.am      1 <0>        -0.5687
     35 N5         -3.9799   -2.3853    1.5634 N.am      1 <0>        -0.5746
     36 N6         -0.8022    4.8685   -1.9107 N.pl3     1 <0>        -0.7533
     37 O1         -0.5362   -1.8555   -0.4928 O.2       1 <0>        -0.5843
     38 O2         -2.2998   -4.1783    2.3409 O.2       1 <0>        -0.6812
     39 O3         -3.9527   -1.0962   -0.3713 O.2       1 <0>        -0.5788
     40 O4        -11.9996   -3.4348   -1.1718 O.3       1 <0>        -0.4938
     41 O5          0.9879   -6.5072   -0.1510 O.3       1 <0>        -0.6030
     42 O6          2.5087    1.9525   -0.9290 O.3       1 <0>        -0.5860
     43 O7         -5.4285   -3.8509   -0.7614 O.3       1 <0>        -0.6021
     44 H1         -7.7350   -3.5329   -2.7040 H         1 <0>         0.1412
     45 H2         -8.6481   -0.9831    0.6463 H         1 <0>         0.1451
     46 H3        -10.0907   -4.2602   -2.7905 H         1 <0>         0.1336
     47 H4        -11.0039   -1.7124    0.5568 H         1 <0>         0.1567
     48 H5          3.5627   -2.8549    0.7003 H         1 <0>         0.0649
     49 H6          2.0259   -2.5829   -0.0837 H         1 <0>         0.0476
     50 H7          2.8567   -4.7427   -0.7790 H         1 <0>         0.0641
     51 H8          3.1032   -5.2618    0.8729 H         1 <0>         0.0484
     52 H9          2.1569   -0.7868    1.7257 H         1 <0>         0.0596
     53 H10         1.5124   -1.2395    3.3116 H         1 <0>         0.0757
     54 H11         1.0921   -5.7802    2.3299 H         1 <0>         0.0782
     55 H12        -0.5175   -5.5090    1.7393 H         1 <0>         0.0812
     56 H13        -0.5378   -0.6778    2.3126 H         1 <0>         0.0731
     57 H14         2.6304   -3.2407    2.8169 H         1 <0>         0.0511
     58 H15         0.4523   -3.8218    3.4319 H         1 <0>         0.0753
     59 H16         0.3841   -4.5700   -0.3844 H         1 <0>         0.0427
     60 H17        -6.0375    0.3284    3.1563 H         1 <0>         0.0450
     61 H18        -5.8542   -1.3328    3.7128 H         1 <0>         0.0406
     62 H19        -5.2988   -0.8789    2.0908 H         1 <0>         0.0274
     63 H20        -3.3028    0.8425    1.9049 H         1 <0>         0.0476
     64 H21        -4.1178    1.8926    3.0773 H         1 <0>         0.0170
     65 H22        -2.4708    1.3315    3.3922 H         1 <0>         0.0477
     66 H23        -6.5706   -0.7287   -0.6213 H         1 <0>         0.0814
     67 H24        -6.2170   -1.7572   -1.9939 H         1 <0>         0.0685
     68 H25         0.4583    2.8766   -3.1995 H         1 <0>         0.1016
     69 H26        -0.9760    1.9088   -3.5262 H         1 <0>         0.0660
     70 H27        -1.4419    1.7433   -1.0734 H         1 <0>         0.0512
     71 H28        -0.0553    2.7561   -0.7237 H         1 <0>         0.0454
     72 H29        -2.0302   -1.0518    4.0061 H         1 <0>         0.0575
     73 H30        -3.3514   -2.1846    4.2177 H         1 <0>         0.0743
     74 H31        -2.4059    3.6595   -2.4451 H         1 <0>         0.0662
     75 H32        -1.4763    4.3211   -3.7975 H         1 <0>         0.0622
     76 H33         1.9749    1.3199   -2.8074 H         1 <0>         0.0321
     77 H34         2.4858    0.0519   -1.6791 H         1 <0>         0.0204
     78 H35        -2.3647   -1.1082    1.5019 H         1 <0>         0.0749
     79 H36        -6.3120   -2.9453    0.8496 H         1 <0>         0.0719
     80 H37        -4.1195    0.0762    4.7551 H         1 <0>         0.0609
     81 H38         0.0149    0.0012   -2.0158 H         1 <0>         0.1063
     82 H39         0.1020    6.8290   -0.3326 H         1 <0>         0.4792
     83 H40        -1.1520    7.9756   -0.6874 H         1 <0>         0.4819
     84 H41        -2.9896    5.8694   -2.9997 H         1 <0>         0.4802
     85 H42        -2.9387    7.4275   -2.2266 H         1 <0>         0.4826
     86 H43         0.8216    0.7626    0.7549 H         1 <0>         0.3101
     87 H44        -4.4957   -3.1095    2.0656 H         1 <0>         0.3087
     88 H45         0.0605    4.6509   -1.3972 H         1 <0>         0.4846
     89 H46       -12.0566   -4.3542   -1.4771 H         1 <0>         0.4194
     90 H47         1.8515   -6.8926    0.0654 H         1 <0>         0.4036
     91 H48         2.2238    2.8203   -1.2580 H         1 <0>         0.4114
     92 H49        -6.0237   -3.9035   -1.5269 H         1 <0>         0.3944
@<TRIPOS>BOND
     1    1    3 ar
     2    1    5 ar
     3    2    4 ar
     4    2    5 ar
     5    3    6 ar
     6    4    6 ar
     7    5   21 1
     8    6   40 1
     9    7   15 1
    10    7   34 am
    11    7   37 2
    12    8   27 1
    13    8   31 am
    14    8   38 2
    15    9   28 1
    16    9   35 am
    17    9   39 2
    18   10   32 1
    19   10   33 1
    20   10   36 1
    21   11   12 1
    22   11   16 1
    23   12   18 1
    24   13   15 1
    25   13   16 1
    26   14   17 1
    27   14   18 1
    28   15   31 1
    29   16   17 1
    30   17   31 1
    31   18   41 1
    32   19   29 1
    33   20   29 1
    34   21   28 1
    35   22   23 1
    36   22   25 1
    37   23   30 1
    38   24   27 1
    39   24   29 1
    40   25   36 1
    41   26   30 1
    42   26   42 1
    43   27   35 1
    44   28   43 1
    45   30   34 1
    46    1   44 1
    47    2   45 1
    48    3   46 1
    49    4   47 1
    50   11   48 1
    51   11   49 1
    52   12   50 1
    53   12   51 1
    54   13   52 1
    55   13   53 1
    56   14   54 1
    57   14   55 1
    58   15   56 1
    59   16   57 1
    60   17   58 1
    61   18   59 1
    62   19   60 1
    63   19   61 1
    64   19   62 1
    65   20   63 1
    66   20   64 1
    67   20   65 1
    68   21   66 1
    69   21   67 1
    70   22   68 1
    71   22   69 1
    72   23   70 1
    73   23   71 1
    74   24   72 1
    75   24   73 1
    76   25   74 1
    77   25   75 1
    78   26   76 1
    79   26   77 1
    80   27   78 1
    81   28   79 1
    82   29   80 1
    83   30   81 1
    84   32   82 1
    85   32   83 1
    86   33   84 1
    87   33   85 1
    88   34   86 1
    89   35   87 1
    90   36   88 1
    91   40   89 1
    92   41   90 1
    93   42   91 1
    94   43   92 1
@<TRIPOS>MOLECULE
1a2c_ligand_70
   92    94     0     0     0
SMALL
USER_CHARGES

mmff94s_NoEstat = 109.28
@<TRIPOS>ATOM
      1 C1         -7.3371   -6.4967   -1.8562 C.ar      1 <0>        -0.0708
      2 C2         -7.9410   -4.1690   -2.0890 C.ar      1 <0>        -0.0872
      3 C3         -8.6687   -6.8619   -2.0534 C.ar      1 <0>        -0.2241
      4 C4         -9.2727   -4.5342   -2.2863 C.ar      1 <0>        -0.1600
      5 C5         -6.9911   -5.1552   -1.8767 C.ar      1 <0>        -0.1356
      6 C6         -9.6366   -5.8806   -2.2684 C.ar      1 <0>         0.1290
      7 C7         -0.0512   -1.0561    0.2993 C.2       1 <0>         0.6664
      8 C8         -1.8469   -3.0457    2.1630 C.2       1 <0>         0.6651
      9 C9         -3.9484   -3.7154   -0.0348 C.2       1 <0>         0.6454
     10 C10        -2.7746    6.0237    0.0845 C.cat     1 <0>         0.6349
     11 C11         2.5186   -3.1911    0.6823 C.3       1 <0>        -0.0642
     12 C12         2.4580   -4.6414    0.2376 C.3       1 <0>        -0.0747
     13 C13         1.4874   -1.4827    2.2418 C.3       1 <0>        -0.0873
     14 C14         0.4946   -5.0934    1.7133 C.3       1 <0>        -0.1371
     15 C15         0.0412   -1.4176    1.7503 C.3       1 <0>         0.0360
     16 C16         1.8865   -2.9529    2.0632 C.3       1 <0>        -0.0720
     17 C17         0.5665   -3.7001    2.3454 C.3       1 <0>         0.1201
     18 C18         1.0248   -5.1525    0.2868 C.3       1 <0>         0.1453
     19 C19        -5.5746   -0.7475    1.4860 C.3       1 <0>        -0.0968
     20 C20        -3.7112    0.7464    0.7408 C.3       1 <0>        -0.0986
     21 C21        -5.5493   -4.7598   -1.6638 C.3       1 <0>        -0.0191
     22 C22        -1.0374    2.7415   -0.6235 C.3       1 <0>        -0.1009
     23 C23         0.2513    2.2726   -1.3090 C.3       1 <0>        -0.0942
     24 C24        -3.2372   -1.0062    2.4788 C.3       1 <0>        -0.0988
     25 C25        -1.1758    4.2607   -0.6924 C.3       1 <0>         0.1966
     26 C26         1.7383    0.3016   -2.0469 C.3       1 <0>         0.1128
     27 C27        -2.8325   -2.1090    1.5076 C.3       1 <0>         0.0786
     28 C28        -5.2285   -4.5282   -0.1835 C.3       1 <0>         0.0744
     29 C29        -4.2955   -0.0321    1.9228 C.3       1 <0>        -0.0678
     30 C30         0.4555    0.7445   -1.3388 C.3       1 <0>         0.1065
     31 N1         -0.4979   -2.7598    1.9615 N.am      1 <0>        -0.4315
     32 N2         -3.9558    6.3783    0.7278 N.pl3     1 <0>        -0.8671
     33 N3         -1.9667    7.0223   -0.4484 N.pl3     1 <0>        -0.8581
     34 N4          0.4455    0.1980   -0.0008 N.am      1 <0>        -0.5687
     35 N5         -3.9193   -2.9688    1.1410 N.am      1 <0>        -0.5746
     36 N6         -2.3904    4.6766   -0.0323 N.pl3     1 <0>        -0.7533
     37 O1         -0.5362   -1.8555   -0.4928 O.2       1 <0>        -0.5843
     38 O2         -2.2659   -3.9924    2.8322 O.2       1 <0>        -0.6812
     39 O3         -3.0587   -3.7239   -0.8825 O.2       1 <0>        -0.5788
     40 O4        -10.9358   -6.2371   -2.4625 O.3       1 <0>        -0.4938
     41 O5          0.9879   -6.5072   -0.1510 O.3       1 <0>        -0.6030
     42 O6          2.8703    0.8436   -1.3793 O.3       1 <0>        -0.5860
     43 O7         -5.0331   -5.7850    0.4486 O.3       1 <0>        -0.6021
     44 H1         -6.5903   -7.2681   -1.6892 H         1 <0>         0.1412
     45 H2         -7.6665   -3.1174   -2.1048 H         1 <0>         0.1451
     46 H3         -8.9459   -7.9123   -2.0385 H         1 <0>         0.1336
     47 H4        -10.0220   -3.7651   -2.4542 H         1 <0>         0.1567
     48 H5          3.5627   -2.8549    0.7003 H         1 <0>         0.0649
     49 H6          2.0259   -2.5829   -0.0837 H         1 <0>         0.0476
     50 H7          2.8567   -4.7427   -0.7790 H         1 <0>         0.0641
     51 H8          3.1032   -5.2618    0.8729 H         1 <0>         0.0484
     52 H9          2.1569   -0.7868    1.7257 H         1 <0>         0.0596
     53 H10         1.5124   -1.2395    3.3116 H         1 <0>         0.0757
     54 H11         1.0921   -5.7802    2.3299 H         1 <0>         0.0782
     55 H12        -0.5175   -5.5090    1.7393 H         1 <0>         0.0812
     56 H13        -0.5378   -0.6778    2.3126 H         1 <0>         0.0731
     57 H14         2.6304   -3.2407    2.8169 H         1 <0>         0.0511
     58 H15         0.4523   -3.8218    3.4319 H         1 <0>         0.0753
     59 H16         0.3841   -4.5700   -0.3844 H         1 <0>         0.0427
     60 H17        -6.2768   -0.0422    1.0282 H         1 <0>         0.0450
     61 H18        -6.0867   -1.2049    2.3377 H         1 <0>         0.0406
     62 H19        -5.3599   -1.5330    0.7535 H         1 <0>         0.0274
     63 H20        -3.4369    0.0757   -0.0807 H         1 <0>         0.0476
     64 H21        -4.4352    1.4732    0.3573 H         1 <0>         0.0170
     65 H22        -2.8146    1.2981    1.0427 H         1 <0>         0.0477
     66 H23        -5.3361   -3.8507   -2.2419 H         1 <0>         0.0814
     67 H24        -4.9101   -5.5427   -2.0912 H         1 <0>         0.0685
     68 H25        -1.9092    2.2808   -1.1025 H         1 <0>         0.1016
     69 H26        -1.0467    2.4234    0.4259 H         1 <0>         0.0660
     70 H27         1.1110    2.7323   -0.8028 H         1 <0>         0.0512
     71 H28         0.2685    2.6560   -2.3373 H         1 <0>         0.0454
     72 H29        -2.3434   -0.4411    2.7760 H         1 <0>         0.0575
     73 H30        -3.6273   -1.4576    3.4018 H         1 <0>         0.0743
     74 H31        -1.2027    4.5928   -1.7356 H         1 <0>         0.0662
     75 H32        -0.3220    4.7463   -0.2087 H         1 <0>         0.0622
     76 H33         1.7614    0.6251   -3.0928 H         1 <0>         0.0321
     77 H34         1.8289   -0.7905   -2.0281 H         1 <0>         0.0204
     78 H35        -2.3687   -1.7253    0.5998 H         1 <0>         0.0749
     79 H36        -6.0461   -4.0086    0.3300 H         1 <0>         0.0719
     80 H37        -4.5575    0.6951    2.7011 H         1 <0>         0.0609
     81 H38        -0.3978    0.3245   -1.8868 H         1 <0>         0.1063
     82 H39        -4.5782    5.6828    1.1306 H         1 <0>         0.4792
     83 H40        -4.2329    7.3536    0.8111 H         1 <0>         0.4819
     84 H41        -1.0966    6.7983   -0.9251 H         1 <0>         0.4802
     85 H42        -2.2244    8.0035   -0.3744 H         1 <0>         0.4826
     86 H43         0.8216    0.7626    0.7549 H         1 <0>         0.3101
     87 H44        -4.7157   -3.0377    1.7764 H         1 <0>         0.3087
     88 H45        -3.0238    3.9804    0.3791 H         1 <0>         0.4846
     89 H46       -11.1435   -7.0391   -1.9570 H         1 <0>         0.4194
     90 H47         1.8515   -6.8926    0.0654 H         1 <0>         0.4036
     91 H48         2.9636    1.7601   -1.6856 H         1 <0>         0.4114
     92 H49        -5.4002   -6.4590   -0.1464 H         1 <0>         0.3944
@<TRIPOS>BOND
     1    1    3 ar
     2    1    5 ar
     3    2    4 ar
     4    2    5 ar
     5    3    6 ar
     6    4    6 ar
     7    5   21 1
     8    6   40 1
     9    7   15 1
    10    7   34 am
    11    7   37 2
    12    8   27 1
    13    8   31 am
    14    8   38 2
    15    9   28 1
    16    9   35 am
    17    9   39 2
    18   10   32 1
    19   10   33 1
    20   10   36 1
    21   11   12 1
    22   11   16 1
    23   12   18 1
    24   13   15 1
    25   13   16 1
    26   14   17 1
    27   14   18 1
    28   15   31 1
    29   16   17 1
    30   17   31 1
    31   18   41 1
    32   19   29 1
    33   20   29 1
    34   21   28 1
    35   22   23 1
    36   22   25 1
    37   23   30 1
    38   24   27 1
    39   24   29 1
    40   25   36 1
    41   26   30 1
    42   26   42 1
    43   27   35 1
    44   28   43 1
    45   30   34 1
    46    1   44 1
    47    2   45 1
    48    3   46 1
    49    4   47 1
    50   11   48 1
    51   11   49 1
    52   12   50 1
    53   12   51 1
    54   13   52 1
    55   13   53 1
    56   14   54 1
    57   14   55 1
    58   15   56 1
    59   16   57 1
    60   17   58 1
    61   18   59 1
    62   19   60 1
    63   19   61 1
    64   19   62 1
    65   20   63 1
    66   20   64 1
    67   20   65 1
    68   21   66 1
    69   21   67 1
    70   22   68 1
    71   22   69 1
    72   23   70 1
    73   23   71 1
    74   24   72 1
    75   24   73 1
    76   25   74 1
    77   25   75 1
    78   26   76 1
    79   26   77 1
    80   27   78 1
    81   28   79 1
    82   29   80 1
    83   30   81 1
    84   32   82 1
    85   32   83 1
    86   33   84 1
    87   33   85 1
    88   34   86 1
    89   35   87 1
    90   36   88 1
    91   40   89 1
    92   41   90 1
    93   42   91 1
    94   43   92 1
@<TRIPOS>MOLECULE
1a2c_ligand_71
   92    94     0     0     0
SMALL
USER_CHARGES

mmff94s_NoEstat = 109.35
@<TRIPOS>ATOM
      1 C1         -7.6258   -3.5029   -2.2620 C.ar      1 <0>        -0.0708
      2 C2         -5.4814   -2.5721   -2.8719 C.ar      1 <0>        -0.0872
      3 C3         -8.2659   -2.4056   -2.8380 C.ar      1 <0>        -0.2241
      4 C4         -6.1215   -1.4747   -3.4479 C.ar      1 <0>        -0.1600
      5 C5         -6.2422   -3.5715   -2.2867 C.ar      1 <0>        -0.1356
      6 C6         -7.5138   -1.3914   -3.4309 C.ar      1 <0>         0.1290
      7 C7         -0.0512   -1.0561    0.2993 C.2       1 <0>         0.6664
      8 C8         -1.8469   -3.0457    2.1630 C.2       1 <0>         0.6651
      9 C9         -3.9484   -3.7154   -0.0348 C.2       1 <0>         0.6454
     10 C10        -2.7746    6.0237    0.0845 C.cat     1 <0>         0.6349
     11 C11         2.5186   -3.1911    0.6823 C.3       1 <0>        -0.0642
     12 C12         2.4580   -4.6414    0.2376 C.3       1 <0>        -0.0747
     13 C13         1.4874   -1.4827    2.2418 C.3       1 <0>        -0.0873
     14 C14         0.4946   -5.0934    1.7133 C.3       1 <0>        -0.1371
     15 C15         0.0412   -1.4176    1.7503 C.3       1 <0>         0.0360
     16 C16         1.8865   -2.9529    2.0632 C.3       1 <0>        -0.0720
     17 C17         0.5665   -3.7001    2.3454 C.3       1 <0>         0.1201
     18 C18         1.0248   -5.1525    0.2868 C.3       1 <0>         0.1453
     19 C19        -5.5746   -0.7475    1.4860 C.3       1 <0>        -0.0968
     20 C20        -3.7112    0.7464    0.7408 C.3       1 <0>        -0.0986
     21 C21        -5.5493   -4.7598   -1.6638 C.3       1 <0>        -0.0191
     22 C22        -1.0374    2.7415   -0.6235 C.3       1 <0>        -0.1009
     23 C23         0.2513    2.2726   -1.3090 C.3       1 <0>        -0.0942
     24 C24        -3.2372   -1.0062    2.4788 C.3       1 <0>        -0.0988
     25 C25        -1.1758    4.2607   -0.6924 C.3       1 <0>         0.1966
     26 C26         1.7383    0.3016   -2.0469 C.3       1 <0>         0.1128
     27 C27        -2.8325   -2.1090    1.5076 C.3       1 <0>         0.0786
     28 C28        -5.2285   -4.5282   -0.1835 C.3       1 <0>         0.0744
     29 C29        -4.2955   -0.0321    1.9228 C.3       1 <0>        -0.0678
     30 C30         0.4555    0.7445   -1.3388 C.3       1 <0>         0.1065
     31 N1         -0.4979   -2.7598    1.9615 N.am      1 <0>        -0.4315
     32 N2         -3.9558    6.3783    0.7278 N.pl3     1 <0>        -0.8671
     33 N3         -1.9667    7.0223   -0.4484 N.pl3     1 <0>        -0.8581
     34 N4          0.4455    0.1980   -0.0008 N.am      1 <0>        -0.5687
     35 N5         -3.9193   -2.9688    1.1410 N.am      1 <0>        -0.5746
     36 N6         -2.3904    4.6766   -0.0323 N.pl3     1 <0>        -0.7533
     37 O1         -0.5362   -1.8555   -0.4928 O.2       1 <0>        -0.5843
     38 O2         -2.2659   -3.9924    2.8322 O.2       1 <0>        -0.6812
     39 O3         -3.0587   -3.7239   -0.8825 O.2       1 <0>        -0.5788
     40 O4         -8.1385   -0.3214   -3.9944 O.3       1 <0>        -0.4938
     41 O5          0.9879   -6.5072   -0.1510 O.3       1 <0>        -0.6030
     42 O6          2.8703    0.8436   -1.3793 O.3       1 <0>        -0.5860
     43 O7         -5.0331   -5.7850    0.4486 O.3       1 <0>        -0.6021
     44 H1         -8.2202   -4.2878   -1.8023 H         1 <0>         0.1412
     45 H2         -4.3961   -2.6287   -2.8900 H         1 <0>         0.1451
     46 H3         -9.3506   -2.3465   -2.8217 H         1 <0>         0.1336
     47 H4         -5.5300   -0.6883   -3.9091 H         1 <0>         0.1567
     48 H5          3.5627   -2.8549    0.7003 H         1 <0>         0.0649
     49 H6          2.0259   -2.5829   -0.0837 H         1 <0>         0.0476
     50 H7          2.8567   -4.7427   -0.7790 H         1 <0>         0.0641
     51 H8          3.1032   -5.2618    0.8729 H         1 <0>         0.0484
     52 H9          2.1569   -0.7868    1.7257 H         1 <0>         0.0596
     53 H10         1.5124   -1.2395    3.3116 H         1 <0>         0.0757
     54 H11         1.0921   -5.7802    2.3299 H         1 <0>         0.0782
     55 H12        -0.5175   -5.5090    1.7393 H         1 <0>         0.0812
     56 H13        -0.5378   -0.6778    2.3126 H         1 <0>         0.0731
     57 H14         2.6304   -3.2407    2.8169 H         1 <0>         0.0511
     58 H15         0.4523   -3.8218    3.4319 H         1 <0>         0.0753
     59 H16         0.3841   -4.5700   -0.3844 H         1 <0>         0.0427
     60 H17        -6.2768   -0.0422    1.0282 H         1 <0>         0.0450
     61 H18        -6.0867   -1.2049    2.3377 H         1 <0>         0.0406
     62 H19        -5.3599   -1.5330    0.7535 H         1 <0>         0.0274
     63 H20        -3.4369    0.0757   -0.0807 H         1 <0>         0.0476
     64 H21        -4.4352    1.4732    0.3573 H         1 <0>         0.0170
     65 H22        -2.8146    1.2981    1.0427 H         1 <0>         0.0477
     66 H23        -4.6263   -4.9709   -2.2204 H         1 <0>         0.0814
     67 H24        -6.1882   -5.6416   -1.7988 H         1 <0>         0.0685
     68 H25        -1.9092    2.2808   -1.1025 H         1 <0>         0.1016
     69 H26        -1.0467    2.4234    0.4259 H         1 <0>         0.0660
     70 H27         1.1110    2.7323   -0.8028 H         1 <0>         0.0512
     71 H28         0.2685    2.6560   -2.3373 H         1 <0>         0.0454
     72 H29        -2.3434   -0.4411    2.7760 H         1 <0>         0.0575
     73 H30        -3.6273   -1.4576    3.4018 H         1 <0>         0.0743
     74 H31        -1.2027    4.5928   -1.7356 H         1 <0>         0.0662
     75 H32        -0.3220    4.7463   -0.2087 H         1 <0>         0.0622
     76 H33         1.7614    0.6251   -3.0928 H         1 <0>         0.0321
     77 H34         1.8289   -0.7905   -2.0281 H         1 <0>         0.0204
     78 H35        -2.3687   -1.7253    0.5998 H         1 <0>         0.0749
     79 H36        -6.0461   -4.0086    0.3300 H         1 <0>         0.0719
     80 H37        -4.5575    0.6951    2.7011 H         1 <0>         0.0609
     81 H38        -0.3978    0.3245   -1.8868 H         1 <0>         0.1063
     82 H39        -4.5782    5.6828    1.1306 H         1 <0>         0.4792
     83 H40        -4.2329    7.3536    0.8111 H         1 <0>         0.4819
     84 H41        -1.0966    6.7983   -0.9251 H         1 <0>         0.4802
     85 H42        -2.2244    8.0035   -0.3744 H         1 <0>         0.4826
     86 H43         0.8216    0.7626    0.7549 H         1 <0>         0.3101
     87 H44        -4.7157   -3.0377    1.7764 H         1 <0>         0.3087
     88 H45        -3.0238    3.9804    0.3791 H         1 <0>         0.4846
     89 H46        -8.9568   -0.1184   -3.5138 H         1 <0>         0.4194
     90 H47         1.8515   -6.8926    0.0654 H         1 <0>         0.4036
     91 H48         2.9636    1.7601   -1.6856 H         1 <0>         0.4114
     92 H49        -5.4002   -6.4590   -0.1464 H         1 <0>         0.3944
@<TRIPOS>BOND
     1    1    3 ar
     2    1    5 ar
     3    2    4 ar
     4    2    5 ar
     5    3    6 ar
     6    4    6 ar
     7    5   21 1
     8    6   40 1
     9    7   15 1
    10    7   34 am
    11    7   37 2
    12    8   27 1
    13    8   31 am
    14    8   38 2
    15    9   28 1
    16    9   35 am
    17    9   39 2
    18   10   32 1
    19   10   33 1
    20   10   36 1
    21   11   12 1
    22   11   16 1
    23   12   18 1
    24   13   15 1
    25   13   16 1
    26   14   17 1
    27   14   18 1
    28   15   31 1
    29   16   17 1
    30   17   31 1
    31   18   41 1
    32   19   29 1
    33   20   29 1
    34   21   28 1
    35   22   23 1
    36   22   25 1
    37   23   30 1
    38   24   27 1
    39   24   29 1
    40   25   36 1
    41   26   30 1
    42   26   42 1
    43   27   35 1
    44   28   43 1
    45   30   34 1
    46    1   44 1
    47    2   45 1
    48    3   46 1
    49    4   47 1
    50   11   48 1
    51   11   49 1
    52   12   50 1
    53   12   51 1
    54   13   52 1
    55   13   53 1
    56   14   54 1
    57   14   55 1
    58   15   56 1
    59   16   57 1
    60   17   58 1
    61   18   59 1
    62   19   60 1
    63   19   61 1
    64   19   62 1
    65   20   63 1
    66   20   64 1
    67   20   65 1
    68   21   66 1
    69   21   67 1
    70   22   68 1
    71   22   69 1
    72   23   70 1
    73   23   71 1
    74   24   72 1
    75   24   73 1
    76   25   74 1
    77   25   75 1
    78   26   76 1
    79   26   77 1
    80   27   78 1
    81   28   79 1
    82   29   80 1
    83   30   81 1
    84   32   82 1
    85   32   83 1
    86   33   84 1
    87   33   85 1
    88   34   86 1
    89   35   87 1
    90   36   88 1
    91   40   89 1
    92   41   90 1
    93   42   91 1
    94   43   92 1
@<TRIPOS>MOLECULE
1a2c_ligand_72
   92    94     0     0     0
SMALL
USER_CHARGES

mmff94s_NoEstat = 109.37
@<TRIPOS>ATOM
      1 C1         -8.4460   -3.1309   -1.9874 C.ar      1 <0>        -0.0708
      2 C2         -8.9583   -1.7012   -0.1084 C.ar      1 <0>        -0.0872
      3 C3         -9.7777   -3.5428   -2.0370 C.ar      1 <0>        -0.2241
      4 C4        -10.2900   -2.1132   -0.1580 C.ar      1 <0>        -0.1600
      5 C5         -8.0541   -2.2156   -1.0238 C.ar      1 <0>        -0.1356
      6 C6        -10.6997   -3.0340   -1.1223 C.ar      1 <0>         0.1290
      7 C7         -0.0512   -1.0561    0.2993 C.2       1 <0>         0.6664
      8 C8         -1.8469   -3.0457    2.1630 C.2       1 <0>         0.6651
      9 C9         -4.4743   -1.9575    0.3333 C.2       1 <0>         0.6454
     10 C10         2.0741    6.6678    0.2810 C.cat     1 <0>         0.6349
     11 C11         2.5186   -3.1911    0.6823 C.3       1 <0>        -0.0642
     12 C12         2.4580   -4.6414    0.2376 C.3       1 <0>        -0.0747
     13 C13         1.4874   -1.4827    2.2418 C.3       1 <0>        -0.0873
     14 C14         0.4946   -5.0934    1.7133 C.3       1 <0>        -0.1371
     15 C15         0.0412   -1.4176    1.7503 C.3       1 <0>         0.0360
     16 C16         1.8865   -2.9529    2.0632 C.3       1 <0>        -0.0720
     17 C17         0.5665   -3.7001    2.3454 C.3       1 <0>         0.1201
     18 C18         1.0248   -5.1525    0.2868 C.3       1 <0>         0.1453
     19 C19        -5.3726   -0.5418    3.1302 C.3       1 <0>        -0.0968
     20 C20        -3.4397    1.0389    2.9738 C.3       1 <0>        -0.0986
     21 C21        -6.6126   -1.7691   -0.9705 C.3       1 <0>        -0.0191
     22 C22         1.3474    3.0593   -0.5807 C.3       1 <0>        -0.1009
     23 C23         0.2513    2.2726   -1.3090 C.3       1 <0>        -0.0942
     24 C24        -2.9973   -1.3585    3.5851 C.3       1 <0>        -0.0988
     25 C25         1.0295    4.5528   -0.5576 C.3       1 <0>         0.1966
     26 C26         1.7383    0.3016   -2.0469 C.3       1 <0>         0.1128
     27 C27        -2.7865   -1.8644    2.1628 C.3       1 <0>         0.0786
     28 C28        -5.7663   -2.6636   -0.0588 C.3       1 <0>         0.0744
     29 C29        -3.9969   -0.1898    3.6979 C.3       1 <0>        -0.0678
     30 C30         0.4555    0.7445   -1.3388 C.3       1 <0>         0.1065
     31 N1         -0.4979   -2.7598    1.9615 N.am      1 <0>        -0.4315
     32 N2          3.1075    7.3179    0.9476 N.pl3     1 <0>        -0.8671
     33 N3          1.0228    7.4177   -0.2351 N.pl3     1 <0>        -0.8581
     34 N4          0.4455    0.1980   -0.0008 N.am      1 <0>        -0.5687
     35 N5         -3.9799   -2.3853    1.5634 N.am      1 <0>        -0.5746
     36 N6          2.0800    5.2710    0.1240 N.pl3     1 <0>        -0.7533
     37 O1         -0.5362   -1.8555   -0.4928 O.2       1 <0>        -0.5843
     38 O2         -2.2998   -4.1783    2.3409 O.2       1 <0>        -0.6812
     39 O3         -3.9527   -1.0962   -0.3713 O.2       1 <0>        -0.5788
     40 O4        -11.9996   -3.4348   -1.1718 O.3       1 <0>        -0.4938
     41 O5          0.9879   -6.5072   -0.1510 O.3       1 <0>        -0.6030
     42 O6          1.7296    0.7591   -3.3929 O.3       1 <0>        -0.5860
     43 O7         -5.4285   -3.8509   -0.7614 O.3       1 <0>        -0.6021
     44 H1         -7.7350   -3.5329   -2.7040 H         1 <0>         0.1412
     45 H2         -8.6481   -0.9831    0.6463 H         1 <0>         0.1451
     46 H3        -10.0907   -4.2602   -2.7905 H         1 <0>         0.1336
     47 H4        -11.0039   -1.7124    0.5568 H         1 <0>         0.1567
     48 H5          3.5627   -2.8549    0.7003 H         1 <0>         0.0649
     49 H6          2.0259   -2.5829   -0.0837 H         1 <0>         0.0476
     50 H7          2.8567   -4.7427   -0.7790 H         1 <0>         0.0641
     51 H8          3.1032   -5.2618    0.8729 H         1 <0>         0.0484
     52 H9          2.1569   -0.7868    1.7257 H         1 <0>         0.0596
     53 H10         1.5124   -1.2395    3.3116 H         1 <0>         0.0757
     54 H11         1.0921   -5.7802    2.3299 H         1 <0>         0.0782
     55 H12        -0.5175   -5.5090    1.7393 H         1 <0>         0.0812
     56 H13        -0.5378   -0.6778    2.3126 H         1 <0>         0.0731
     57 H14         2.6304   -3.2407    2.8169 H         1 <0>         0.0511
     58 H15         0.4523   -3.8218    3.4319 H         1 <0>         0.0753
     59 H16         0.3841   -4.5700   -0.3844 H         1 <0>         0.0427
     60 H17        -6.0375    0.3284    3.1563 H         1 <0>         0.0450
     61 H18        -5.8542   -1.3328    3.7128 H         1 <0>         0.0406
     62 H19        -5.2988   -0.8789    2.0908 H         1 <0>         0.0274
     63 H20        -3.3028    0.8425    1.9049 H         1 <0>         0.0476
     64 H21        -4.1178    1.8926    3.0773 H         1 <0>         0.0170
     65 H22        -2.4708    1.3315    3.3922 H         1 <0>         0.0477
     66 H23        -6.5706   -0.7287   -0.6213 H         1 <0>         0.0814
     67 H24        -6.2170   -1.7572   -1.9939 H         1 <0>         0.0685
     68 H25         1.4494    2.6994    0.4497 H         1 <0>         0.1016
     69 H26         2.3163    2.9020   -1.0695 H         1 <0>         0.0660
     70 H27         0.1784    2.6377   -2.3425 H         1 <0>         0.0512
     71 H28        -0.7172    2.4951   -0.8432 H         1 <0>         0.0454
     72 H29        -2.0302   -1.0518    4.0061 H         1 <0>         0.0575
     73 H30        -3.3514   -2.1846    4.2177 H         1 <0>         0.0743
     74 H31         0.0800    4.7312   -0.0419 H         1 <0>         0.0662
     75 H32         0.9347    4.9409   -1.5770 H         1 <0>         0.0622
     76 H33         1.8500   -0.7877   -2.0488 H         1 <0>         0.0321
     77 H34         2.6170    0.7313   -1.5524 H         1 <0>         0.0204
     78 H35        -2.3647   -1.1082    1.5019 H         1 <0>         0.0749
     79 H36        -6.3120   -2.9453    0.8496 H         1 <0>         0.0719
     80 H37        -4.1195    0.0762    4.7551 H         1 <0>         0.0609
     81 H38        -0.3978    0.3245   -1.8868 H         1 <0>         0.1063
     82 H39         3.8950    6.8110    1.3428 H         1 <0>         0.4792
     83 H40         3.1016    8.3289    1.0610 H         1 <0>         0.4819
     84 H41         0.2512    6.9745   -0.7279 H         1 <0>         0.4802
     85 H42         0.9985    8.4296   -0.1342 H         1 <0>         0.4826
     86 H43         0.8216    0.7626    0.7549 H         1 <0>         0.3101
     87 H44        -4.4957   -3.1095    2.0656 H         1 <0>         0.3087
     88 H45         2.8803    4.7666    0.5244 H         1 <0>         0.4846
     89 H46       -12.0566   -4.3542   -1.4771 H         1 <0>         0.4194
     90 H47         1.8515   -6.8926    0.0654 H         1 <0>         0.4036
     91 H48         1.1820    0.1356   -3.8968 H         1 <0>         0.4114
     92 H49        -6.0237   -3.9035   -1.5269 H         1 <0>         0.3944
@<TRIPOS>BOND
     1    1    3 ar
     2    1    5 ar
     3    2    4 ar
     4    2    5 ar
     5    3    6 ar
     6    4    6 ar
     7    5   21 1
     8    6   40 1
     9    7   15 1
    10    7   34 am
    11    7   37 2
    12    8   27 1
    13    8   31 am
    14    8   38 2
    15    9   28 1
    16    9   35 am
    17    9   39 2
    18   10   32 1
    19   10   33 1
    20   10   36 1
    21   11   12 1
    22   11   16 1
    23   12   18 1
    24   13   15 1
    25   13   16 1
    26   14   17 1
    27   14   18 1
    28   15   31 1
    29   16   17 1
    30   17   31 1
    31   18   41 1
    32   19   29 1
    33   20   29 1
    34   21   28 1
    35   22   23 1
    36   22   25 1
    37   23   30 1
    38   24   27 1
    39   24   29 1
    40   25   36 1
    41   26   30 1
    42   26   42 1
    43   27   35 1
    44   28   43 1
    45   30   34 1
    46    1   44 1
    47    2   45 1
    48    3   46 1
    49    4   47 1
    50   11   48 1
    51   11   49 1
    52   12   50 1
    53   12   51 1
    54   13   52 1
    55   13   53 1
    56   14   54 1
    57   14   55 1
    58   15   56 1
    59   16   57 1
    60   17   58 1
    61   18   59 1
    62   19   60 1
    63   19   61 1
    64   19   62 1
    65   20   63 1
    66   20   64 1
    67   20   65 1
    68   21   66 1
    69   21   67 1
    70   22   68 1
    71   22   69 1
    72   23   70 1
    73   23   71 1
    74   24   72 1
    75   24   73 1
    76   25   74 1
    77   25   75 1
    78   26   76 1
    79   26   77 1
    80   27   78 1
    81   28   79 1
    82   29   80 1
    83   30   81 1
    84   32   82 1
    85   32   83 1
    86   33   84 1
    87   33   85 1
    88   34   86 1
    89   35   87 1
    90   36   88 1
    91   40   89 1
    92   41   90 1
    93   42   91 1
    94   43   92 1
@<TRIPOS>MOLECULE
1a2c_ligand_73
   92    94     0     0     0
SMALL
USER_CHARGES

mmff94s_NoEstat = 109.37
@<TRIPOS>ATOM
      1 C1          9.9563   -1.0986    4.0997 C.ar      1 <0>        -0.0708
      2 C2          8.8528   -0.7412    6.2190 C.ar      1 <0>        -0.0872
      3 C3         11.0523   -0.3601    4.5459 C.ar      1 <0>        -0.2241
      4 C4          9.9488   -0.0027    6.6652 C.ar      1 <0>        -0.1600
      5 C5          8.8713   -1.2793    4.9423 C.ar      1 <0>        -0.1356
      6 C6         11.0485    0.1878    5.8286 C.ar      1 <0>         0.1290
      7 C7          0.1755   -1.0766    0.1327 C.2       1 <0>         0.6664
      8 C8          2.3785   -0.9757    2.2764 C.2       1 <0>         0.6651
      9 C9          5.2968   -1.9145    3.7000 C.2       1 <0>         0.6454
     10 C10         0.2323    5.6394    2.4404 C.cat     1 <0>         0.6349
     11 C11         2.4521   -5.3069   -0.2561 C.3       1 <0>        -0.0642
     12 C12         1.2413   -5.9691    0.3982 C.3       1 <0>        -0.0747
     13 C13         1.5734   -2.9393   -0.7647 C.3       1 <0>        -0.0873
     14 C14         1.0938   -4.1277    2.1072 C.3       1 <0>        -0.1371
     15 C15         1.5650   -1.6216    0.0133 C.3       1 <0>         0.0360
     16 C16         2.5597   -3.8106    0.0203 C.3       1 <0>        -0.0720
     17 C17         2.2934   -3.4012    1.4755 C.3       1 <0>         0.1201
     18 C18         1.1411   -5.6363    1.8853 C.3       1 <0>         0.1453
     19 C19         3.8896   -0.8379    6.4377 C.3       1 <0>        -0.0968
     20 C20         2.2599   -2.7349    6.3694 C.3       1 <0>        -0.0986
     21 C21         7.6850   -2.0794    4.4595 C.3       1 <0>        -0.0191
     22 C22        -0.6430    2.4326    0.6399 C.3       1 <0>        -0.1009
     23 C23        -1.2979    2.0260   -0.6854 C.3       1 <0>        -0.0942
     24 C24         1.9925   -0.8489    4.7298 C.3       1 <0>        -0.0988
     25 C25        -0.5996    3.9518    0.7888 C.3       1 <0>         0.1966
     26 C26        -2.1127    0.1273   -2.2253 C.3       1 <0>         0.1128
     27 C27         2.8496   -1.4560    3.6253 C.3       1 <0>         0.0786
     28 C28         6.6400   -1.1984    3.7670 C.3       1 <0>         0.0744
     29 C29         2.4383   -1.2292    6.1562 C.3       1 <0>        -0.0678
     30 C30        -1.4370    0.5062   -0.9051 C.3       1 <0>         0.1065
     31 N1          2.0322   -1.9586    1.3590 N.am      1 <0>        -0.4315
     32 N2          0.8416    5.9360    3.6551 N.pl3     1 <0>        -0.8671
     33 N3         -0.1798    6.6813    1.6165 N.pl3     1 <0>        -0.8581
     34 N4         -0.1481   -0.1440   -0.8342 N.am      1 <0>        -0.5687
     35 N5          4.2184   -1.0331    3.6724 N.am      1 <0>        -0.5746
     36 N6          0.0297    4.3079    2.0383 N.pl3     1 <0>        -0.7533
     37 O1         -0.5534   -1.4727    1.0347 O.2       1 <0>        -0.5843
     38 O2          2.3230    0.2335    2.0409 O.2       1 <0>        -0.6812
     39 O3          5.2019   -3.1398    3.6875 O.2       1 <0>        -0.5788
     40 O4         12.1187    0.9071    6.2646 O.3       1 <0>        -0.4938
     41 O5          2.2611   -6.1715    2.5852 O.3       1 <0>        -0.6030
     42 O6         -2.2112   -1.2870   -2.3289 O.3       1 <0>        -0.5860
     43 O7          7.0680   -0.9312    2.4393 O.3       1 <0>        -0.6021
     44 H1          9.9683   -1.5215    3.0988 H         1 <0>         0.1412
     45 H2          8.0003   -0.8848    6.8778 H         1 <0>         0.1451
     46 H3         11.9060   -0.2154    3.8896 H         1 <0>         0.1336
     47 H4          9.9403    0.4209    7.6660 H         1 <0>         0.1567
     48 H5          3.3605   -5.7937    0.1218 H         1 <0>         0.0649
     49 H6          2.4319   -5.4897   -1.3370 H         1 <0>         0.0476
     50 H7          0.3241   -5.6545   -0.1129 H         1 <0>         0.0641
     51 H8          1.3294   -7.0545    0.2691 H         1 <0>         0.0484
     52 H9          0.5754   -3.3919   -0.8000 H         1 <0>         0.0596
     53 H10         1.8977   -2.7914   -1.8003 H         1 <0>         0.0757
     54 H11         1.0807   -3.9085    3.1823 H         1 <0>         0.0782
     55 H12         0.1523   -3.7376    1.7002 H         1 <0>         0.0812
     56 H13         2.2202   -0.8626   -0.4249 H         1 <0>         0.0731
     57 H14         3.5726   -3.4842   -0.2571 H         1 <0>         0.0511
     58 H15         3.1875   -3.5701    2.0864 H         1 <0>         0.0753
     59 H16         0.2435   -6.1003    2.3075 H         1 <0>         0.0427
     60 H17         4.2001   -1.1859    7.4289 H         1 <0>         0.0450
     61 H18         4.0203    0.2482    6.4220 H         1 <0>         0.0406
     62 H19         4.5693   -1.2752    5.6986 H         1 <0>         0.0274
     63 H20         2.8852   -3.3113    5.6789 H         1 <0>         0.0476
     64 H21         2.5335   -3.0185    7.3913 H         1 <0>         0.0170
     65 H22         1.2173   -3.0301    6.2104 H         1 <0>         0.0477
     66 H23         7.2316   -2.6014    5.3127 H         1 <0>         0.0814
     67 H24         8.0500   -2.8661    3.7872 H         1 <0>         0.0685
     68 H25        -1.1995    2.0063    1.4826 H         1 <0>         0.1016
     69 H26         0.3766    2.0329    0.6979 H         1 <0>         0.0660
     70 H27        -0.7150    2.4492   -1.5148 H         1 <0>         0.0512
     71 H28        -2.2909    2.4892   -0.7497 H         1 <0>         0.0454
     72 H29         0.9469   -1.1516    4.5828 H         1 <0>         0.0575
     73 H30         2.0032    0.2464    4.6399 H         1 <0>         0.0743
     74 H31        -1.6136    4.3648    0.7674 H         1 <0>         0.0662
     75 H32        -0.0373    4.4024   -0.0355 H         1 <0>         0.0622
     76 H33        -1.5587    0.5035   -3.0917 H         1 <0>         0.0321
     77 H34        -3.1279    0.5382   -2.2680 H         1 <0>         0.0204
     78 H35         2.8203   -2.5449    3.6159 H         1 <0>         0.0749
     79 H36         6.5115   -0.2411    4.2859 H         1 <0>         0.0719
     80 H37         1.7968   -0.7138    6.8816 H         1 <0>         0.0609
     81 H38        -2.0581    0.1260   -0.0837 H         1 <0>         0.1063
     82 H39         1.1571    5.2076    4.2901 H         1 <0>         0.4792
     83 H40         0.9871    6.9003    3.9451 H         1 <0>         0.4819
     84 H41        -0.6286    6.5001    0.7219 H         1 <0>         0.4802
     85 H42        -0.0422    7.6522    1.8867 H         1 <0>         0.4826
     86 H43         0.5534    0.0962   -1.5282 H         1 <0>         0.3101
     87 H44         4.4137   -0.0309    3.6864 H         1 <0>         0.3087
     88 H45         0.3532    3.5780    2.6847 H         1 <0>         0.4846
     89 H46        12.5321    1.3777    5.5233 H         1 <0>         0.4194
     90 H47         2.7873   -5.4145    2.8873 H         1 <0>         0.4036
     91 H48        -1.3448   -1.6067   -2.6281 H         1 <0>         0.4114
     92 H49         8.0124   -1.1538    2.3984 H         1 <0>         0.3944
@<TRIPOS>BOND
     1    1    3 ar
     2    1    5 ar
     3    2    4 ar
     4    2    5 ar
     5    3    6 ar
     6    4    6 ar
     7    5   21 1
     8    6   40 1
     9    7   15 1
    10    7   34 am
    11    7   37 2
    12    8   27 1
    13    8   31 am
    14    8   38 2
    15    9   28 1
    16    9   35 am
    17    9   39 2
    18   10   32 1
    19   10   33 1
    20   10   36 1
    21   11   12 1
    22   11   16 1
    23   12   18 1
    24   13   15 1
    25   13   16 1
    26   14   17 1
    27   14   18 1
    28   15   31 1
    29   16   17 1
    30   17   31 1
    31   18   41 1
    32   19   29 1
    33   20   29 1
    34   21   28 1
    35   22   23 1
    36   22   25 1
    37   23   30 1
    38   24   27 1
    39   24   29 1
    40   25   36 1
    41   26   30 1
    42   26   42 1
    43   27   35 1
    44   28   43 1
    45   30   34 1
    46    1   44 1
    47    2   45 1
    48    3   46 1
    49    4   47 1
    50   11   48 1
    51   11   49 1
    52   12   50 1
    53   12   51 1
    54   13   52 1
    55   13   53 1
    56   14   54 1
    57   14   55 1
    58   15   56 1
    59   16   57 1
    60   17   58 1
    61   18   59 1
    62   19   60 1
    63   19   61 1
    64   19   62 1
    65   20   63 1
    66   20   64 1
    67   20   65 1
    68   21   66 1
    69   21   67 1
    70   22   68 1
    71   22   69 1
    72   23   70 1
    73   23   71 1
    74   24   72 1
    75   24   73 1
    76   25   74 1
    77   25   75 1
    78   26   76 1
    79   26   77 1
    80   27   78 1
    81   28   79 1
    82   29   80 1
    83   30   81 1
    84   32   82 1
    85   32   83 1
    86   33   84 1
    87   33   85 1
    88   34   86 1
    89   35   87 1
    90   36   88 1
    91   40   89 1
    92   41   90 1
    93   42   91 1
    94   43   92 1
@<TRIPOS>MOLECULE
1a2c_ligand_74
   92    94     0     0     0
SMALL
USER_CHARGES

mmff94s_NoEstat = 109.43
@<TRIPOS>ATOM
      1 C1         -8.6891   -1.0874    0.2432 C.ar      1 <0>        -0.0708
      2 C2         -6.8597    0.4829    0.0867 C.ar      1 <0>        -0.0872
      3 C3         -9.4297   -0.1524    0.9664 C.ar      1 <0>        -0.2241
      4 C4         -7.6003    1.4179    0.8099 C.ar      1 <0>        -0.1600
      5 C5         -7.4141   -0.7571   -0.1870 C.ar      1 <0>        -0.1356
      6 C6         -8.8853    1.1002    1.2498 C.ar      1 <0>         0.1290
      7 C7         -0.0512   -1.0561    0.2993 C.2       1 <0>         0.6664
      8 C8         -1.8469   -3.0457    2.1630 C.2       1 <0>         0.6651
      9 C9         -4.4743   -1.9575    0.3333 C.2       1 <0>         0.6454
     10 C10        -1.5598    6.0912   -1.5254 C.cat     1 <0>         0.6349
     11 C11         2.5186   -3.1911    0.6823 C.3       1 <0>        -0.0642
     12 C12         2.4580   -4.6414    0.2376 C.3       1 <0>        -0.0747
     13 C13         1.4874   -1.4827    2.2418 C.3       1 <0>        -0.0873
     14 C14         0.4946   -5.0934    1.7133 C.3       1 <0>        -0.1371
     15 C15         0.0412   -1.4176    1.7503 C.3       1 <0>         0.0360
     16 C16         1.8865   -2.9529    2.0632 C.3       1 <0>        -0.0720
     17 C17         0.5665   -3.7001    2.3454 C.3       1 <0>         0.1201
     18 C18         1.0248   -5.1525    0.2868 C.3       1 <0>         0.1453
     19 C19        -5.3726   -0.5418    3.1302 C.3       1 <0>        -0.0968
     20 C20        -3.4397    1.0389    2.9738 C.3       1 <0>        -0.0986
     21 C21        -6.6126   -1.7691   -0.9705 C.3       1 <0>        -0.0191
     22 C22         0.1864    2.9452   -2.6852 C.3       1 <0>        -0.1009
     23 C23         0.2513    2.2726   -1.3090 C.3       1 <0>        -0.0942
     24 C24        -2.9973   -1.3585    3.5851 C.3       1 <0>        -0.0988
     25 C25         0.0377    4.4591   -2.5512 C.3       1 <0>         0.1966
     26 C26         1.7383    0.3016   -2.0469 C.3       1 <0>         0.1128
     27 C27        -2.7865   -1.8644    2.1628 C.3       1 <0>         0.0786
     28 C28        -5.7663   -2.6636   -0.0588 C.3       1 <0>         0.0744
     29 C29        -3.9969   -0.1898    3.6979 C.3       1 <0>        -0.0678
     30 C30         0.4555    0.7445   -1.3388 C.3       1 <0>         0.1065
     31 N1         -0.4979   -2.7598    1.9615 N.am      1 <0>        -0.4315
     32 N2         -2.7331    6.3484   -0.8240 N.pl3     1 <0>        -0.8671
     33 N3         -0.7663    7.1580   -1.9336 N.pl3     1 <0>        -0.8581
     34 N4          0.4455    0.1980   -0.0008 N.am      1 <0>        -0.5687
     35 N5         -3.9799   -2.3853    1.5634 N.am      1 <0>        -0.5746
     36 N6         -1.1692    4.7745   -1.8245 N.pl3     1 <0>        -0.7533
     37 O1         -0.5362   -1.8555   -0.4928 O.2       1 <0>        -0.5843
     38 O2         -2.2998   -4.1783    2.3409 O.2       1 <0>        -0.6812
     39 O3         -3.9527   -1.0962   -0.3713 O.2       1 <0>        -0.5788
     40 O4         -9.6087    2.0131    1.9541 O.3       1 <0>        -0.4938
     41 O5          0.9879   -6.5072   -0.1510 O.3       1 <0>        -0.6030
     42 O6          2.8703    0.8436   -1.3793 O.3       1 <0>        -0.5860
     43 O7         -5.4285   -3.8509   -0.7614 O.3       1 <0>        -0.6021
     44 H1         -9.1215   -2.0606    0.0275 H         1 <0>         0.1412
     45 H2         -5.8593    0.7393   -0.2523 H         1 <0>         0.1451
     46 H3        -10.4301   -0.4058    1.3062 H         1 <0>         0.1336
     47 H4         -7.1710    2.3925    1.0267 H         1 <0>         0.1567
     48 H5          3.5627   -2.8549    0.7003 H         1 <0>         0.0649
     49 H6          2.0259   -2.5829   -0.0837 H         1 <0>         0.0476
     50 H7          2.8567   -4.7427   -0.7790 H         1 <0>         0.0641
     51 H8          3.1032   -5.2618    0.8729 H         1 <0>         0.0484
     52 H9          2.1569   -0.7868    1.7257 H         1 <0>         0.0596
     53 H10         1.5124   -1.2395    3.3116 H         1 <0>         0.0757
     54 H11         1.0921   -5.7802    2.3299 H         1 <0>         0.0782
     55 H12        -0.5175   -5.5090    1.7393 H         1 <0>         0.0812
     56 H13        -0.5378   -0.6778    2.3126 H         1 <0>         0.0731
     57 H14         2.6304   -3.2407    2.8169 H         1 <0>         0.0511
     58 H15         0.4523   -3.8218    3.4319 H         1 <0>         0.0753
     59 H16         0.3841   -4.5700   -0.3844 H         1 <0>         0.0427
     60 H17        -6.0375    0.3284    3.1563 H         1 <0>         0.0450
     61 H18        -5.8542   -1.3328    3.7128 H         1 <0>         0.0406
     62 H19        -5.2988   -0.8789    2.0908 H         1 <0>         0.0274
     63 H20        -3.3028    0.8425    1.9049 H         1 <0>         0.0476
     64 H21        -4.1178    1.8926    3.0773 H         1 <0>         0.0170
     65 H22        -2.4708    1.3315    3.3922 H         1 <0>         0.0477
     66 H23        -5.9666   -1.2415   -1.6850 H         1 <0>         0.0814
     67 H24        -7.3067   -2.3638   -1.5776 H         1 <0>         0.0685
     68 H25         1.0953    2.7243   -3.2569 H         1 <0>         0.1016
     69 H26        -0.6566    2.5474   -3.2629 H         1 <0>         0.0660
     70 H27        -0.6751    2.4928   -0.7614 H         1 <0>         0.0512
     71 H28         1.0606    2.7304   -0.7258 H         1 <0>         0.0454
     72 H29        -2.0302   -1.0518    4.0061 H         1 <0>         0.0575
     73 H30        -3.3514   -2.1846    4.2177 H         1 <0>         0.0743
     74 H31        -0.0073    4.9256   -3.5409 H         1 <0>         0.0662
     75 H32         0.8958    4.8836   -2.0199 H         1 <0>         0.0622
     76 H33         1.7614    0.6251   -3.0928 H         1 <0>         0.0321
     77 H34         1.8289   -0.7905   -2.0281 H         1 <0>         0.0204
     78 H35        -2.3647   -1.1082    1.5019 H         1 <0>         0.0749
     79 H36        -6.3120   -2.9453    0.8496 H         1 <0>         0.0719
     80 H37        -4.1195    0.0762    4.7551 H         1 <0>         0.0609
     81 H38        -0.3978    0.3245   -1.8868 H         1 <0>         0.1063
     82 H39        -3.3450    5.6009   -0.5076 H         1 <0>         0.4792
     83 H40        -3.0148    7.3020   -0.6088 H         1 <0>         0.4819
     84 H41         0.0977    7.0057   -2.4482 H         1 <0>         0.4802
     85 H42        -1.0289    8.1187   -1.7271 H         1 <0>         0.4826
     86 H43         0.8216    0.7626    0.7549 H         1 <0>         0.3101
     87 H44        -4.4957   -3.1095    2.0656 H         1 <0>         0.3087
     88 H45        -1.7919    4.0250   -1.4994 H         1 <0>         0.4846
     89 H46       -10.1852    1.5647    2.5931 H         1 <0>         0.4194
     90 H47         1.8515   -6.8926    0.0654 H         1 <0>         0.4036
     91 H48         2.9636    1.7601   -1.6856 H         1 <0>         0.4114
     92 H49        -6.0237   -3.9035   -1.5269 H         1 <0>         0.3944
@<TRIPOS>BOND
     1    1    3 ar
     2    1    5 ar
     3    2    4 ar
     4    2    5 ar
     5    3    6 ar
     6    4    6 ar
     7    5   21 1
     8    6   40 1
     9    7   15 1
    10    7   34 am
    11    7   37 2
    12    8   27 1
    13    8   31 am
    14    8   38 2
    15    9   28 1
    16    9   35 am
    17    9   39 2
    18   10   32 1
    19   10   33 1
    20   10   36 1
    21   11   12 1
    22   11   16 1
    23   12   18 1
    24   13   15 1
    25   13   16 1
    26   14   17 1
    27   14   18 1
    28   15   31 1
    29   16   17 1
    30   17   31 1
    31   18   41 1
    32   19   29 1
    33   20   29 1
    34   21   28 1
    35   22   23 1
    36   22   25 1
    37   23   30 1
    38   24   27 1
    39   24   29 1
    40   25   36 1
    41   26   30 1
    42   26   42 1
    43   27   35 1
    44   28   43 1
    45   30   34 1
    46    1   44 1
    47    2   45 1
    48    3   46 1
    49    4   47 1
    50   11   48 1
    51   11   49 1
    52   12   50 1
    53   12   51 1
    54   13   52 1
    55   13   53 1
    56   14   54 1
    57   14   55 1
    58   15   56 1
    59   16   57 1
    60   17   58 1
    61   18   59 1
    62   19   60 1
    63   19   61 1
    64   19   62 1
    65   20   63 1
    66   20   64 1
    67   20   65 1
    68   21   66 1
    69   21   67 1
    70   22   68 1
    71   22   69 1
    72   23   70 1
    73   23   71 1
    74   24   72 1
    75   24   73 1
    76   25   74 1
    77   25   75 1
    78   26   76 1
    79   26   77 1
    80   27   78 1
    81   28   79 1
    82   29   80 1
    83   30   81 1
    84   32   82 1
    85   32   83 1
    86   33   84 1
    87   33   85 1
    88   34   86 1
    89   35   87 1
    90   36   88 1
    91   40   89 1
    92   41   90 1
    93   42   91 1
    94   43   92 1
@<TRIPOS>MOLECULE
1a2c_ligand_75
   92    94     0     0     0
SMALL
USER_CHARGES

mmff94s_NoEstat = 109.45
@<TRIPOS>ATOM
      1 C1         -8.6891   -1.0874    0.2432 C.ar      1 <0>        -0.0708
      2 C2         -6.8597    0.4829    0.0867 C.ar      1 <0>        -0.0872
      3 C3         -9.4297   -0.1524    0.9664 C.ar      1 <0>        -0.2241
      4 C4         -7.6003    1.4179    0.8099 C.ar      1 <0>        -0.1600
      5 C5         -7.4141   -0.7571   -0.1870 C.ar      1 <0>        -0.1356
      6 C6         -8.8853    1.1002    1.2498 C.ar      1 <0>         0.1290
      7 C7         -0.0512   -1.0561    0.2993 C.2       1 <0>         0.6664
      8 C8         -1.8469   -3.0457    2.1630 C.2       1 <0>         0.6651
      9 C9         -4.4743   -1.9575    0.3333 C.2       1 <0>         0.6454
     10 C10        -2.1772   -1.1627   -4.7494 C.cat     1 <0>         0.6349
     11 C11         2.5186   -3.1911    0.6823 C.3       1 <0>        -0.0642
     12 C12         2.4580   -4.6414    0.2376 C.3       1 <0>        -0.0747
     13 C13         1.4874   -1.4827    2.2418 C.3       1 <0>        -0.0873
     14 C14         0.4946   -5.0934    1.7133 C.3       1 <0>        -0.1371
     15 C15         0.0412   -1.4176    1.7503 C.3       1 <0>         0.0360
     16 C16         1.8865   -2.9529    2.0632 C.3       1 <0>        -0.0720
     17 C17         0.5665   -3.7001    2.3454 C.3       1 <0>         0.1201
     18 C18         1.0248   -5.1525    0.2868 C.3       1 <0>         0.1453
     19 C19        -5.3726   -0.5418    3.1302 C.3       1 <0>        -0.0968
     20 C20        -3.4397    1.0389    2.9738 C.3       1 <0>        -0.0986
     21 C21        -6.6126   -1.7691   -0.9705 C.3       1 <0>        -0.0191
     22 C22        -0.9951    2.0137   -3.0747 C.3       1 <0>        -0.1009
     23 C23        -0.8794    1.4488   -1.6540 C.3       1 <0>        -0.0942
     24 C24        -2.9973   -1.3585    3.5851 C.3       1 <0>        -0.0988
     25 C25        -0.9093    0.9015   -4.1176 C.3       1 <0>         0.1966
     26 C26         1.6856    1.6412   -1.5001 C.3       1 <0>         0.1128
     27 C27        -2.7865   -1.8644    2.1628 C.3       1 <0>         0.0786
     28 C28        -5.7663   -2.6636   -0.0588 C.3       1 <0>         0.0744
     29 C29        -3.9969   -0.1898    3.6979 C.3       1 <0>        -0.0678
     30 C30         0.4555    0.7445   -1.3388 C.3       1 <0>         0.1065
     31 N1         -0.4979   -2.7598    1.9615 N.am      1 <0>        -0.4315
     32 N2         -3.2267   -2.0473   -4.5232 N.pl3     1 <0>        -0.8671
     33 N3         -1.3100   -1.3971   -5.8110 N.pl3     1 <0>        -0.8581
     34 N4          0.4455    0.1980   -0.0008 N.am      1 <0>        -0.5687
     35 N5         -3.9799   -2.3853    1.5634 N.am      1 <0>        -0.5746
     36 N6         -1.9845   -0.0421   -3.9232 N.pl3     1 <0>        -0.7533
     37 O1         -0.5362   -1.8555   -0.4928 O.2       1 <0>        -0.5843
     38 O2         -2.2998   -4.1783    2.3409 O.2       1 <0>        -0.6812
     39 O3         -3.9527   -1.0962   -0.3713 O.2       1 <0>        -0.5788
     40 O4         -9.6087    2.0131    1.9541 O.3       1 <0>        -0.4938
     41 O5          0.9879   -6.5072   -0.1510 O.3       1 <0>        -0.6030
     42 O6          2.8639    0.9021   -1.2063 O.3       1 <0>        -0.5860
     43 O7         -5.4285   -3.8509   -0.7614 O.3       1 <0>        -0.6021
     44 H1         -9.1215   -2.0606    0.0275 H         1 <0>         0.1412
     45 H2         -5.8593    0.7393   -0.2523 H         1 <0>         0.1451
     46 H3        -10.4301   -0.4058    1.3062 H         1 <0>         0.1336
     47 H4         -7.1710    2.3925    1.0267 H         1 <0>         0.1567
     48 H5          3.5627   -2.8549    0.7003 H         1 <0>         0.0649
     49 H6          2.0259   -2.5829   -0.0837 H         1 <0>         0.0476
     50 H7          2.8567   -4.7427   -0.7790 H         1 <0>         0.0641
     51 H8          3.1032   -5.2618    0.8729 H         1 <0>         0.0484
     52 H9          2.1569   -0.7868    1.7257 H         1 <0>         0.0596
     53 H10         1.5124   -1.2395    3.3116 H         1 <0>         0.0757
     54 H11         1.0921   -5.7802    2.3299 H         1 <0>         0.0782
     55 H12        -0.5175   -5.5090    1.7393 H         1 <0>         0.0812
     56 H13        -0.5378   -0.6778    2.3126 H         1 <0>         0.0731
     57 H14         2.6304   -3.2407    2.8169 H         1 <0>         0.0511
     58 H15         0.4523   -3.8218    3.4319 H         1 <0>         0.0753
     59 H16         0.3841   -4.5700   -0.3844 H         1 <0>         0.0427
     60 H17        -6.0375    0.3284    3.1563 H         1 <0>         0.0450
     61 H18        -5.8542   -1.3328    3.7128 H         1 <0>         0.0406
     62 H19        -5.2988   -0.8789    2.0908 H         1 <0>         0.0274
     63 H20        -3.3028    0.8425    1.9049 H         1 <0>         0.0476
     64 H21        -4.1178    1.8926    3.0773 H         1 <0>         0.0170
     65 H22        -2.4708    1.3315    3.3922 H         1 <0>         0.0477
     66 H23        -5.9666   -1.2415   -1.6850 H         1 <0>         0.0814
     67 H24        -7.3067   -2.3638   -1.5776 H         1 <0>         0.0685
     68 H25        -1.9473    2.5434   -3.1941 H         1 <0>         0.1016
     69 H26        -0.1993    2.7456   -3.2583 H         1 <0>         0.0660
     70 H27        -1.7000    0.7382   -1.4859 H         1 <0>         0.0512
     71 H28        -1.0340    2.2618   -0.9330 H         1 <0>         0.0454
     72 H29        -2.0302   -1.0518    4.0061 H         1 <0>         0.0575
     73 H30        -3.3514   -2.1846    4.2177 H         1 <0>         0.0743
     74 H31         0.0481    0.3762   -4.0351 H         1 <0>         0.0662
     75 H32        -0.9770    1.3169   -5.1283 H         1 <0>         0.0622
     76 H33         1.6463    2.5133   -0.8391 H         1 <0>         0.0321
     77 H34         1.7645    2.0016   -2.5321 H         1 <0>         0.0204
     78 H35        -2.3647   -1.1082    1.5019 H         1 <0>         0.0749
     79 H36        -6.3120   -2.9453    0.8496 H         1 <0>         0.0719
     80 H37        -4.1195    0.0762    4.7551 H         1 <0>         0.0609
     81 H38         0.5463   -0.0881   -2.0483 H         1 <0>         0.1063
     82 H39        -3.8838   -1.9173   -3.7587 H         1 <0>         0.4792
     83 H40        -3.3646   -2.8583   -5.1217 H         1 <0>         0.4819
     84 H41        -0.5324   -0.7707   -6.0048 H         1 <0>         0.4802
     85 H42        -1.4312   -2.2010   -6.4224 H         1 <0>         0.4826
     86 H43         0.8216    0.7626    0.7549 H         1 <0>         0.3101
     87 H44        -4.4957   -3.1095    2.0656 H         1 <0>         0.3087
     88 H45        -2.6541    0.0831   -3.1543 H         1 <0>         0.4846
     89 H46       -10.1852    1.5647    2.5931 H         1 <0>         0.4194
     90 H47         1.8515   -6.8926    0.0654 H         1 <0>         0.4036
     91 H48         2.9483    0.8828   -0.2393 H         1 <0>         0.4114
     92 H49        -6.0237   -3.9035   -1.5269 H         1 <0>         0.3944
@<TRIPOS>BOND
     1    1    3 ar
     2    1    5 ar
     3    2    4 ar
     4    2    5 ar
     5    3    6 ar
     6    4    6 ar
     7    5   21 1
     8    6   40 1
     9    7   15 1
    10    7   34 am
    11    7   37 2
    12    8   27 1
    13    8   31 am
    14    8   38 2
    15    9   28 1
    16    9   35 am
    17    9   39 2
    18   10   32 1
    19   10   33 1
    20   10   36 1
    21   11   12 1
    22   11   16 1
    23   12   18 1
    24   13   15 1
    25   13   16 1
    26   14   17 1
    27   14   18 1
    28   15   31 1
    29   16   17 1
    30   17   31 1
    31   18   41 1
    32   19   29 1
    33   20   29 1
    34   21   28 1
    35   22   23 1
    36   22   25 1
    37   23   30 1
    38   24   27 1
    39   24   29 1
    40   25   36 1
    41   26   30 1
    42   26   42 1
    43   27   35 1
    44   28   43 1
    45   30   34 1
    46    1   44 1
    47    2   45 1
    48    3   46 1
    49    4   47 1
    50   11   48 1
    51   11   49 1
    52   12   50 1
    53   12   51 1
    54   13   52 1
    55   13   53 1
    56   14   54 1
    57   14   55 1
    58   15   56 1
    59   16   57 1
    60   17   58 1
    61   18   59 1
    62   19   60 1
    63   19   61 1
    64   19   62 1
    65   20   63 1
    66   20   64 1
    67   20   65 1
    68   21   66 1
    69   21   67 1
    70   22   68 1
    71   22   69 1
    72   23   70 1
    73   23   71 1
    74   24   72 1
    75   24   73 1
    76   25   74 1
    77   25   75 1
    78   26   76 1
    79   26   77 1
    80   27   78 1
    81   28   79 1
    82   29   80 1
    83   30   81 1
    84   32   82 1
    85   32   83 1
    86   33   84 1
    87   33   85 1
    88   34   86 1
    89   35   87 1
    90   36   88 1
    91   40   89 1
    92   41   90 1
    93   42   91 1
    94   43   92 1
@<TRIPOS>MOLECULE
1a2c_ligand_76
   92    94     0     0     0
SMALL
USER_CHARGES

mmff94s_NoEstat = 109.51
@<TRIPOS>ATOM
      1 C1          9.9563   -1.0986    4.0997 C.ar      1 <0>        -0.0708
      2 C2          8.8528   -0.7412    6.2190 C.ar      1 <0>        -0.0872
      3 C3         11.0523   -0.3601    4.5459 C.ar      1 <0>        -0.2241
      4 C4          9.9488   -0.0027    6.6652 C.ar      1 <0>        -0.1600
      5 C5          8.8713   -1.2793    4.9423 C.ar      1 <0>        -0.1356
      6 C6         11.0485    0.1878    5.8286 C.ar      1 <0>         0.1290
      7 C7          0.1755   -1.0766    0.1327 C.2       1 <0>         0.6664
      8 C8          2.3785   -0.9757    2.2764 C.2       1 <0>         0.6651
      9 C9          5.2968   -1.9145    3.7000 C.2       1 <0>         0.6454
     10 C10         0.0177    5.1861   -4.1496 C.cat     1 <0>         0.6349
     11 C11         2.4521   -5.3069   -0.2561 C.3       1 <0>        -0.0642
     12 C12         1.2413   -5.9691    0.3982 C.3       1 <0>        -0.0747
     13 C13         1.5734   -2.9393   -0.7647 C.3       1 <0>        -0.0873
     14 C14         1.0938   -4.1277    2.1072 C.3       1 <0>        -0.1371
     15 C15         1.5650   -1.6216    0.0133 C.3       1 <0>         0.0360
     16 C16         2.5597   -3.8106    0.0203 C.3       1 <0>        -0.0720
     17 C17         2.2934   -3.4012    1.4755 C.3       1 <0>         0.1201
     18 C18         1.1411   -5.6363    1.8853 C.3       1 <0>         0.1453
     19 C19         3.8896   -0.8379    6.4377 C.3       1 <0>        -0.0968
     20 C20         2.2599   -2.7349    6.3694 C.3       1 <0>        -0.0986
     21 C21         7.6850   -2.0794    4.4595 C.3       1 <0>        -0.0191
     22 C22        -0.8155    2.0502   -2.2095 C.3       1 <0>        -0.1009
     23 C23        -1.7941    0.8762   -2.3301 C.3       1 <0>        -0.0942
     24 C24         1.9925   -0.8489    4.7298 C.3       1 <0>        -0.0988
     25 C25        -1.0015    3.0414   -3.3563 C.3       1 <0>         0.1966
     26 C26        -2.7214   -1.3050   -1.3187 C.3       1 <0>         0.1128
     27 C27         2.8496   -1.4560    3.6253 C.3       1 <0>         0.0786
     28 C28         6.6400   -1.1984    3.7670 C.3       1 <0>         0.0744
     29 C29         2.4383   -1.2292    6.1562 C.3       1 <0>        -0.0678
     30 C30        -1.7203   -0.1547   -1.1858 C.3       1 <0>         0.1065
     31 N1          2.0322   -1.9586    1.3590 N.am      1 <0>        -0.4315
     32 N2          0.9368    6.2166   -3.9817 N.pl3     1 <0>        -0.8671
     33 N3         -0.8308    5.2073   -5.2513 N.pl3     1 <0>        -0.8581
     34 N4         -0.3878   -0.7030   -1.0725 N.am      1 <0>        -0.5687
     35 N5          4.2184   -1.0331    3.6724 N.am      1 <0>        -0.5746
     36 N6         -0.0630    4.1305   -3.2250 N.pl3     1 <0>        -0.7533
     37 O1         -0.3509   -1.0007    1.2367 O.2       1 <0>        -0.5843
     38 O2          2.3230    0.2335    2.0409 O.2       1 <0>        -0.6812
     39 O3          5.2019   -3.1398    3.6875 O.2       1 <0>        -0.5788
     40 O4         12.1187    0.9071    6.2646 O.3       1 <0>        -0.4938
     41 O5          2.2611   -6.1715    2.5852 O.3       1 <0>        -0.6030
     42 O6         -2.4752   -2.0231   -2.5206 O.3       1 <0>        -0.5860
     43 O7          7.0680   -0.9312    2.4393 O.3       1 <0>        -0.6021
     44 H1          9.9683   -1.5215    3.0988 H         1 <0>         0.1412
     45 H2          8.0003   -0.8848    6.8778 H         1 <0>         0.1451
     46 H3         11.9060   -0.2154    3.8896 H         1 <0>         0.1336
     47 H4          9.9403    0.4209    7.6660 H         1 <0>         0.1567
     48 H5          3.3605   -5.7937    0.1218 H         1 <0>         0.0649
     49 H6          2.4319   -5.4897   -1.3370 H         1 <0>         0.0476
     50 H7          0.3241   -5.6545   -0.1129 H         1 <0>         0.0641
     51 H8          1.3294   -7.0545    0.2691 H         1 <0>         0.0484
     52 H9          0.5754   -3.3919   -0.8000 H         1 <0>         0.0596
     53 H10         1.8977   -2.7914   -1.8003 H         1 <0>         0.0757
     54 H11         1.0807   -3.9085    3.1823 H         1 <0>         0.0782
     55 H12         0.1523   -3.7376    1.7002 H         1 <0>         0.0812
     56 H13         2.2202   -0.8626   -0.4249 H         1 <0>         0.0731
     57 H14         3.5726   -3.4842   -0.2571 H         1 <0>         0.0511
     58 H15         3.1875   -3.5701    2.0864 H         1 <0>         0.0753
     59 H16         0.2435   -6.1003    2.3075 H         1 <0>         0.0427
     60 H17         4.2001   -1.1859    7.4289 H         1 <0>         0.0450
     61 H18         4.0203    0.2482    6.4220 H         1 <0>         0.0406
     62 H19         4.5693   -1.2752    5.6986 H         1 <0>         0.0274
     63 H20         2.8852   -3.3113    5.6789 H         1 <0>         0.0476
     64 H21         2.5335   -3.0185    7.3913 H         1 <0>         0.0170
     65 H22         1.2173   -3.0301    6.2104 H         1 <0>         0.0477
     66 H23         7.2316   -2.6014    5.3127 H         1 <0>         0.0814
     67 H24         8.0500   -2.8661    3.7872 H         1 <0>         0.0685
     68 H25        -0.9672    2.5721   -1.2575 H         1 <0>         0.1016
     69 H26         0.2183    1.6845   -2.2100 H         1 <0>         0.0660
     70 H27        -1.6130    0.3584   -3.2819 H         1 <0>         0.0512
     71 H28        -2.8171    1.2691   -2.3922 H         1 <0>         0.0454
     72 H29         0.9469   -1.1516    4.5828 H         1 <0>         0.0575
     73 H30         2.0032    0.2464    4.6399 H         1 <0>         0.0743
     74 H31        -2.0203    3.4431   -3.3499 H         1 <0>         0.0662
     75 H32        -0.8427    2.5473   -4.3203 H         1 <0>         0.0622
     76 H33        -3.7565   -0.9478   -1.3308 H         1 <0>         0.0321
     77 H34        -2.6144   -2.0048   -0.4820 H         1 <0>         0.0204
     78 H35         2.8203   -2.5449    3.6159 H         1 <0>         0.0749
     79 H36         6.5115   -0.2411    4.2859 H         1 <0>         0.0719
     80 H37         1.7968   -0.7138    6.8816 H         1 <0>         0.0609
     81 H38        -1.9472    0.3883   -0.2591 H         1 <0>         0.1063
     82 H39         1.5752    6.2439   -3.1911 H         1 <0>         0.4792
     83 H40         0.9937    6.9803   -4.6514 H         1 <0>         0.4819
     84 H41        -1.5145    4.4701   -5.4045 H         1 <0>         0.4802
     85 H42        -0.7890    5.9606   -5.9336 H         1 <0>         0.4826
     86 H43         0.1607   -0.8193   -1.9192 H         1 <0>         0.3101
     87 H44         4.4137   -0.0309    3.6864 H         1 <0>         0.3087
     88 H45         0.5869    4.1646   -2.4302 H         1 <0>         0.4846
     89 H46        12.5321    1.3777    5.5233 H         1 <0>         0.4194
     90 H47         2.7873   -5.4145    2.8873 H         1 <0>         0.4036
     91 H48        -2.8906   -1.5183   -3.2383 H         1 <0>         0.4114
     92 H49         8.0124   -1.1538    2.3984 H         1 <0>         0.3944
@<TRIPOS>BOND
     1    1    3 ar
     2    1    5 ar
     3    2    4 ar
     4    2    5 ar
     5    3    6 ar
     6    4    6 ar
     7    5   21 1
     8    6   40 1
     9    7   15 1
    10    7   34 am
    11    7   37 2
    12    8   27 1
    13    8   31 am
    14    8   38 2
    15    9   28 1
    16    9   35 am
    17    9   39 2
    18   10   32 1
    19   10   33 1
    20   10   36 1
    21   11   12 1
    22   11   16 1
    23   12   18 1
    24   13   15 1
    25   13   16 1
    26   14   17 1
    27   14   18 1
    28   15   31 1
    29   16   17 1
    30   17   31 1
    31   18   41 1
    32   19   29 1
    33   20   29 1
    34   21   28 1
    35   22   23 1
    36   22   25 1
    37   23   30 1
    38   24   27 1
    39   24   29 1
    40   25   36 1
    41   26   30 1
    42   26   42 1
    43   27   35 1
    44   28   43 1
    45   30   34 1
    46    1   44 1
    47    2   45 1
    48    3   46 1
    49    4   47 1
    50   11   48 1
    51   11   49 1
    52   12   50 1
    53   12   51 1
    54   13   52 1
    55   13   53 1
    56   14   54 1
    57   14   55 1
    58   15   56 1
    59   16   57 1
    60   17   58 1
    61   18   59 1
    62   19   60 1
    63   19   61 1
    64   19   62 1
    65   20   63 1
    66   20   64 1
    67   20   65 1
    68   21   66 1
    69   21   67 1
    70   22   68 1
    71   22   69 1
    72   23   70 1
    73   23   71 1
    74   24   72 1
    75   24   73 1
    76   25   74 1
    77   25   75 1
    78   26   76 1
    79   26   77 1
    80   27   78 1
    81   28   79 1
    82   29   80 1
    83   30   81 1
    84   32   82 1
    85   32   83 1
    86   33   84 1
    87   33   85 1
    88   34   86 1
    89   35   87 1
    90   36   88 1
    91   40   89 1
    92   41   90 1
    93   42   91 1
    94   43   92 1
@<TRIPOS>MOLECULE
1a2c_ligand_77
   92    94     0     0     0
SMALL
USER_CHARGES

mmff94s_NoEstat = 109.68
@<TRIPOS>ATOM
      1 C1         -8.0152   -3.5356   -3.3577 C.ar      1 <0>        -0.0708
      2 C2         -6.2456   -2.9590   -4.8981 C.ar      1 <0>        -0.0872
      3 C3         -8.8774   -3.7579   -4.4314 C.ar      1 <0>        -0.2241
      4 C4         -7.1078   -3.1813   -5.9718 C.ar      1 <0>        -0.1600
      5 C5         -6.7109   -3.1392   -3.6054 C.ar      1 <0>        -0.1356
      6 C6         -8.4237   -3.5808   -5.7385 C.ar      1 <0>         0.1290
      7 C7         -0.1674   -1.0853   -0.0424 C.2       1 <0>         0.6664
      8 C8         -2.5997   -3.1326    0.7250 C.2       1 <0>         0.6651
      9 C9         -4.5933   -1.1215   -1.1219 C.2       1 <0>         0.6454
     10 C10        -1.6266    5.7233    0.8537 C.cat     1 <0>         0.6349
     11 C11         2.0445   -3.7524    0.2047 C.3       1 <0>        -0.0642
     12 C12         2.1951   -5.1517   -0.3975 C.3       1 <0>        -0.0747
     13 C13         0.7864   -2.3272    1.9103 C.3       1 <0>        -0.0873
     14 C14        -0.3466   -4.9962   -0.4055 C.3       1 <0>        -0.1371
     15 C15        -0.4770   -1.8334    1.2187 C.3       1 <0>         0.0360
     16 C16         1.0305   -3.7327    1.3503 C.3       1 <0>        -0.0720
     17 C17        -0.3661   -4.2312    0.9284 C.3       1 <0>         0.1201
     18 C18         0.8694   -5.9135   -0.5141 C.3       1 <0>         0.1453
     19 C19        -5.9631   -0.4404    1.7581 C.3       1 <0>        -0.0968
     20 C20        -3.8887    0.7550    2.4841 C.3       1 <0>        -0.0986
     21 C21        -5.7773   -2.8992   -2.4430 C.3       1 <0>        -0.0191
     22 C22        -1.2290    2.3228   -0.7494 C.3       1 <0>        -0.1009
     23 C23         0.3037    2.3337   -0.7876 C.3       1 <0>        -0.0942
     24 C24        -3.8619   -1.7555    2.3678 C.3       1 <0>        -0.0988
     25 C25        -1.7874    3.7418   -0.6680 C.3       1 <0>         0.1966
     26 C26         2.4918    0.9866   -0.9811 C.3       1 <0>         0.1128
     27 C27        -3.3800   -1.8574    0.9254 C.3       1 <0>         0.0786
     28 C28        -5.8260   -1.4472   -1.9560 C.3       1 <0>         0.0744
     29 C29        -4.7285   -0.5135    2.6578 C.3       1 <0>        -0.0678
     30 C30         0.9627    0.9465   -0.9241 C.3       1 <0>         0.1065
     31 N1         -1.2224   -3.0398    0.8850 N.am      1 <0>        -0.4315
     32 N2         -1.1347    6.3139    2.0131 N.pl3     1 <0>        -0.8671
     33 N3         -2.4537    6.4623    0.0148 N.pl3     1 <0>        -0.8581
     34 N4          0.5562    0.0753    0.1551 N.am      1 <0>        -0.5687
     35 N5         -4.4491   -1.9660   -0.0233 N.am      1 <0>        -0.5746
     36 N6         -1.2995    4.3971    0.5222 N.pl3     1 <0>        -0.7533
     37 O1         -0.5544   -1.5275   -1.1177 O.2       1 <0>        -0.5843
     38 O2         -3.1933   -4.1752    0.4418 O.2       1 <0>        -0.6812
     39 O3         -3.8320   -0.1982   -1.4017 O.2       1 <0>        -0.5788
     40 O4         -9.2646   -3.7993   -6.7862 O.3       1 <0>        -0.4938
     41 O5          0.7872   -6.8901    0.5248 O.3       1 <0>        -0.6030
     42 O6          3.0045   -0.3315   -1.1244 O.3       1 <0>        -0.5860
     43 O7         -6.9746   -1.2727   -1.1388 O.3       1 <0>        -0.6021
     44 H1         -8.3778   -3.6760   -2.3430 H         1 <0>         0.1412
     45 H2         -5.2218   -2.6482   -5.0894 H         1 <0>         0.1451
     46 H3         -9.9012   -4.0691   -4.2431 H         1 <0>         0.1336
     47 H4         -6.7482   -3.0425   -6.9880 H         1 <0>         0.1567
     48 H5          3.0220   -3.4003    0.5555 H         1 <0>         0.0649
     49 H6          1.7363   -3.0584   -0.5866 H         1 <0>         0.0476
     50 H7          2.6388   -5.0399   -1.3944 H         1 <0>         0.0641
     51 H8          2.9088   -5.7297    0.2024 H         1 <0>         0.0484
     52 H9          1.6439   -1.6583    1.7836 H         1 <0>         0.0596
     53 H10         0.5887   -2.4119    2.9867 H         1 <0>         0.0757
     54 H11        -1.2632   -5.5927   -0.4872 H         1 <0>         0.0782
     55 H12        -0.3526   -4.2949   -1.2498 H         1 <0>         0.0812
     56 H13        -1.0651   -1.1731    1.8629 H         1 <0>         0.0731
     57 H14         1.4245   -4.3763    2.1480 H         1 <0>         0.0511
     58 H15        -0.7725   -4.8823    1.7135 H         1 <0>         0.0753
     59 H16         0.8433   -6.4624   -1.4612 H         1 <0>         0.0427
     60 H17        -6.5181    0.4873    1.9352 H         1 <0>         0.0450
     61 H18        -6.6497   -1.2692    1.9547 H         1 <0>         0.0406
     62 H19        -5.6850   -0.4702    0.6992 H         1 <0>         0.0274
     63 H20        -3.5277    0.8553    1.4548 H         1 <0>         0.0476
     64 H21        -4.4764    1.6472    2.7254 H         1 <0>         0.0170
     65 H22        -3.0188    0.7404    3.1493 H         1 <0>         0.0477
     66 H23        -4.7539   -3.1614   -2.7431 H         1 <0>         0.0814
     67 H24        -6.0412   -3.5973   -1.6386 H         1 <0>         0.0685
     68 H25        -1.6256    1.8333   -1.6465 H         1 <0>         0.1016
     69 H26        -1.5833    1.7433    0.1115 H         1 <0>         0.0660
     70 H27         0.6789    2.8127    0.1271 H         1 <0>         0.0512
     71 H28         0.6355    2.9707   -1.6175 H         1 <0>         0.0454
     72 H29        -2.9928   -1.7573    3.0396 H         1 <0>         0.0575
     73 H30        -4.4407   -2.6540    2.6237 H         1 <0>         0.0743
     74 H31        -2.8819    3.7184   -0.6415 H         1 <0>         0.0662
     75 H32        -1.4863    4.3238   -1.5451 H         1 <0>         0.0622
     76 H33         2.9238    1.4335   -0.0796 H         1 <0>         0.0321
     77 H34         2.8279    1.5728   -1.8441 H         1 <0>         0.0204
     78 H35        -2.7366   -1.0282    0.6336 H         1 <0>         0.0749
     79 H36        -5.8899   -0.7426   -2.7936 H         1 <0>         0.0719
     80 H37        -5.0656   -0.5471    3.7011 H         1 <0>         0.0609
     81 H38         0.5984    0.5173   -1.8665 H         1 <0>         0.1063
     82 H39        -0.5289    5.8119    2.6567 H         1 <0>         0.4792
     83 H40        -1.3728    7.2738    2.2520 H         1 <0>         0.4819
     84 H41        -2.8308    6.0615   -0.8405 H         1 <0>         0.4802
     85 H42        -2.7025    7.4239    0.2343 H         1 <0>         0.4826
     86 H43         0.8147    0.3282    1.1041 H         1 <0>         0.3101
     87 H44        -5.1428   -2.7027    0.1135 H         1 <0>         0.3087
     88 H45        -0.6852    3.8976    1.1767 H         1 <0>         0.4846
     89 H46       -10.1751   -3.5710   -6.5400 H         1 <0>         0.4194
     90 H47         1.3049   -6.5470    1.2701 H         1 <0>         0.4036
     91 H48         3.0027   -0.7302   -0.2393 H         1 <0>         0.4114
     92 H49        -7.5575   -2.0309   -1.3076 H         1 <0>         0.3944
@<TRIPOS>BOND
     1    1    3 ar
     2    1    5 ar
     3    2    4 ar
     4    2    5 ar
     5    3    6 ar
     6    4    6 ar
     7    5   21 1
     8    6   40 1
     9    7   15 1
    10    7   34 am
    11    7   37 2
    12    8   27 1
    13    8   31 am
    14    8   38 2
    15    9   28 1
    16    9   35 am
    17    9   39 2
    18   10   32 1
    19   10   33 1
    20   10   36 1
    21   11   12 1
    22   11   16 1
    23   12   18 1
    24   13   15 1
    25   13   16 1
    26   14   17 1
    27   14   18 1
    28   15   31 1
    29   16   17 1
    30   17   31 1
    31   18   41 1
    32   19   29 1
    33   20   29 1
    34   21   28 1
    35   22   23 1
    36   22   25 1
    37   23   30 1
    38   24   27 1
    39   24   29 1
    40   25   36 1
    41   26   30 1
    42   26   42 1
    43   27   35 1
    44   28   43 1
    45   30   34 1
    46    1   44 1
    47    2   45 1
    48    3   46 1
    49    4   47 1
    50   11   48 1
    51   11   49 1
    52   12   50 1
    53   12   51 1
    54   13   52 1
    55   13   53 1
    56   14   54 1
    57   14   55 1
    58   15   56 1
    59   16   57 1
    60   17   58 1
    61   18   59 1
    62   19   60 1
    63   19   61 1
    64   19   62 1
    65   20   63 1
    66   20   64 1
    67   20   65 1
    68   21   66 1
    69   21   67 1
    70   22   68 1
    71   22   69 1
    72   23   70 1
    73   23   71 1
    74   24   72 1
    75   24   73 1
    76   25   74 1
    77   25   75 1
    78   26   76 1
    79   26   77 1
    80   27   78 1
    81   28   79 1
    82   29   80 1
    83   30   81 1
    84   32   82 1
    85   32   83 1
    86   33   84 1
    87   33   85 1
    88   34   86 1
    89   35   87 1
    90   36   88 1
    91   40   89 1
    92   41   90 1
    93   42   91 1
    94   43   92 1
@<TRIPOS>MOLECULE
1a2c_ligand_78
   92    94     0     0     0
SMALL
USER_CHARGES

mmff94s_NoEstat = 109.69
@<TRIPOS>ATOM
      1 C1          9.6781   -0.8835    4.6459 C.ar      1 <0>        -0.0708
      2 C2          8.0683    0.3374    5.9707 C.ar      1 <0>        -0.0872
      3 C3         10.6899   -0.0331    5.0917 C.ar      1 <0>        -0.2241
      4 C4          9.0801    1.1878    6.4165 C.ar      1 <0>        -0.1600
      5 C5          8.3809   -0.6869    5.0914 C.ar      1 <0>        -0.1356
      6 C6         10.3909    1.0026    5.9770 C.ar      1 <0>         0.1290
      7 C7          0.1755   -1.0766    0.1327 C.2       1 <0>         0.6664
      8 C8          2.3785   -0.9757    2.2764 C.2       1 <0>         0.6651
      9 C9          5.2695   -1.7615    3.1198 C.2       1 <0>         0.6454
     10 C10         0.0566    5.9382   -0.9679 C.cat     1 <0>         0.6349
     11 C11         2.4521   -5.3069   -0.2561 C.3       1 <0>        -0.0642
     12 C12         1.2413   -5.9691    0.3982 C.3       1 <0>        -0.0747
     13 C13         1.5734   -2.9393   -0.7647 C.3       1 <0>        -0.0873
     14 C14         1.0938   -4.1277    2.1072 C.3       1 <0>        -0.1371
     15 C15         1.5650   -1.6216    0.0133 C.3       1 <0>         0.0360
     16 C16         2.5597   -3.8106    0.0203 C.3       1 <0>        -0.0720
     17 C17         2.2934   -3.4012    1.4755 C.3       1 <0>         0.1201
     18 C18         1.1411   -5.6363    1.8853 C.3       1 <0>         0.1453
     19 C19         3.8896   -0.8379    6.4377 C.3       1 <0>        -0.0968
     20 C20         2.2599   -2.7349    6.3694 C.3       1 <0>        -0.0986
     21 C21         7.2857   -1.6080    4.6093 C.3       1 <0>        -0.0191
     22 C22        -0.8392    2.2664   -0.8852 C.3       1 <0>        -0.1009
     23 C23        -1.6754    1.2905   -1.7214 C.3       1 <0>        -0.0942
     24 C24         1.9925   -0.8489    4.7298 C.3       1 <0>        -0.0988
     25 C25        -0.9003    3.6784   -1.4634 C.3       1 <0>         0.1966
     26 C26        -2.5783   -1.1036   -2.0263 C.3       1 <0>         0.1128
     27 C27         2.8496   -1.4560    3.6253 C.3       1 <0>         0.0786
     28 C28         6.6222   -1.0920    3.3282 C.3       1 <0>         0.0744
     29 C29         2.4383   -1.2292    6.1562 C.3       1 <0>        -0.0678
     30 C30        -1.7203   -0.1547   -1.1858 C.3       1 <0>         0.1065
     31 N1          2.0322   -1.9586    1.3590 N.am      1 <0>        -0.4315
     32 N2          0.8383    6.7654   -0.1682 N.pl3     1 <0>        -0.8671
     33 N3         -0.5783    6.4758   -2.0824 N.pl3     1 <0>        -0.8581
     34 N4         -0.3878   -0.7030   -1.0725 N.am      1 <0>        -0.5687
     35 N5          4.2184   -1.0331    3.6724 N.am      1 <0>        -0.5746
     36 N6         -0.0981    4.5744   -0.6649 N.pl3     1 <0>        -0.7533
     37 O1         -0.3509   -1.0007    1.2367 O.2       1 <0>        -0.5843
     38 O2          2.3230    0.2335    2.0409 O.2       1 <0>        -0.6812
     39 O3          5.1476   -2.8360    2.5359 O.2       1 <0>        -0.5788
     40 O4         11.3785    1.8314    6.4133 O.3       1 <0>        -0.4938
     41 O5          2.2611   -6.1715    2.5852 O.3       1 <0>        -0.6030
     42 O6         -2.5724   -2.4015   -1.4465 O.3       1 <0>        -0.5860
     43 O7          7.4509   -1.4094    2.2191 O.3       1 <0>        -0.6021
     44 H1          9.9207   -1.6873    3.9562 H         1 <0>         0.1412
     45 H2          7.0498    0.4890    6.3187 H         1 <0>         0.1451
     46 H3         11.7089   -0.1826    4.7459 H         1 <0>         0.1336
     47 H4          8.8410    1.9923    7.1070 H         1 <0>         0.1567
     48 H5          3.3605   -5.7937    0.1218 H         1 <0>         0.0649
     49 H6          2.4319   -5.4897   -1.3370 H         1 <0>         0.0476
     50 H7          0.3241   -5.6545   -0.1129 H         1 <0>         0.0641
     51 H8          1.3294   -7.0545    0.2691 H         1 <0>         0.0484
     52 H9          0.5754   -3.3919   -0.8000 H         1 <0>         0.0596
     53 H10         1.8977   -2.7914   -1.8003 H         1 <0>         0.0757
     54 H11         1.0807   -3.9085    3.1823 H         1 <0>         0.0782
     55 H12         0.1523   -3.7376    1.7002 H         1 <0>         0.0812
     56 H13         2.2202   -0.8626   -0.4249 H         1 <0>         0.0731
     57 H14         3.5726   -3.4842   -0.2571 H         1 <0>         0.0511
     58 H15         3.1875   -3.5701    2.0864 H         1 <0>         0.0753
     59 H16         0.2435   -6.1003    2.3075 H         1 <0>         0.0427
     60 H17         4.2001   -1.1859    7.4289 H         1 <0>         0.0450
     61 H18         4.0203    0.2482    6.4220 H         1 <0>         0.0406
     62 H19         4.5693   -1.2752    5.6986 H         1 <0>         0.0274
     63 H20         2.8852   -3.3113    5.6789 H         1 <0>         0.0476
     64 H21         2.5335   -3.0185    7.3913 H         1 <0>         0.0170
     65 H22         1.2173   -3.0301    6.2104 H         1 <0>         0.0477
     66 H23         6.5349   -1.7208    5.4029 H         1 <0>         0.0814
     67 H24         7.7154   -2.6065    4.4600 H         1 <0>         0.0685
     68 H25        -1.2041    2.2870    0.1483 H         1 <0>         0.1016
     69 H26         0.2054    1.9349   -0.8467 H         1 <0>         0.0660
     70 H27        -1.2820    1.2733   -2.7469 H         1 <0>         0.0512
     71 H28        -2.7004    1.6751   -1.7996 H         1 <0>         0.0454
     72 H29         0.9469   -1.1516    4.5828 H         1 <0>         0.0575
     73 H30         2.0032    0.2464    4.6399 H         1 <0>         0.0743
     74 H31        -1.9343    4.0389   -1.4775 H         1 <0>         0.0662
     75 H32        -0.5286    3.6880   -2.4933 H         1 <0>         0.0622
     76 H33        -2.2157   -1.1795   -3.0567 H         1 <0>         0.0321
     77 H34        -3.6169   -0.7550   -2.0576 H         1 <0>         0.0204
     78 H35         2.8203   -2.5449    3.6159 H         1 <0>         0.0749
     79 H36         6.4849   -0.0045    3.3546 H         1 <0>         0.0719
     80 H37         1.7968   -0.7138    6.8816 H         1 <0>         0.0609
     81 H38        -2.1562   -0.1031   -0.1797 H         1 <0>         0.1063
     82 H39         1.3192    6.4171    0.6569 H         1 <0>         0.4792
     83 H40         0.9489    7.7525   -0.3884 H         1 <0>         0.4819
     84 H41        -1.1572    5.8995   -2.6884 H         1 <0>         0.4802
     85 H42        -0.4794    7.4595   -2.3213 H         1 <0>         0.4826
     86 H43         0.1607   -0.8193   -1.9192 H         1 <0>         0.3101
     87 H44         4.4349   -0.1495    4.1364 H         1 <0>         0.3087
     88 H45         0.3928    4.2301    0.1692 H         1 <0>         0.4846
     89 H46        12.0516    1.9448    5.7234 H         1 <0>         0.4194
     90 H47         2.7873   -5.4145    2.8873 H         1 <0>         0.4036
     91 H48        -1.7464   -2.8287   -1.7250 H         1 <0>         0.4114
     92 H49         8.3251   -1.6348    2.5769 H         1 <0>         0.3944
@<TRIPOS>BOND
     1    1    3 ar
     2    1    5 ar
     3    2    4 ar
     4    2    5 ar
     5    3    6 ar
     6    4    6 ar
     7    5   21 1
     8    6   40 1
     9    7   15 1
    10    7   34 am
    11    7   37 2
    12    8   27 1
    13    8   31 am
    14    8   38 2
    15    9   28 1
    16    9   35 am
    17    9   39 2
    18   10   32 1
    19   10   33 1
    20   10   36 1
    21   11   12 1
    22   11   16 1
    23   12   18 1
    24   13   15 1
    25   13   16 1
    26   14   17 1
    27   14   18 1
    28   15   31 1
    29   16   17 1
    30   17   31 1
    31   18   41 1
    32   19   29 1
    33   20   29 1
    34   21   28 1
    35   22   23 1
    36   22   25 1
    37   23   30 1
    38   24   27 1
    39   24   29 1
    40   25   36 1
    41   26   30 1
    42   26   42 1
    43   27   35 1
    44   28   43 1
    45   30   34 1
    46    1   44 1
    47    2   45 1
    48    3   46 1
    49    4   47 1
    50   11   48 1
    51   11   49 1
    52   12   50 1
    53   12   51 1
    54   13   52 1
    55   13   53 1
    56   14   54 1
    57   14   55 1
    58   15   56 1
    59   16   57 1
    60   17   58 1
    61   18   59 1
    62   19   60 1
    63   19   61 1
    64   19   62 1
    65   20   63 1
    66   20   64 1
    67   20   65 1
    68   21   66 1
    69   21   67 1
    70   22   68 1
    71   22   69 1
    72   23   70 1
    73   23   71 1
    74   24   72 1
    75   24   73 1
    76   25   74 1
    77   25   75 1
    78   26   76 1
    79   26   77 1
    80   27   78 1
    81   28   79 1
    82   29   80 1
    83   30   81 1
    84   32   82 1
    85   32   83 1
    86   33   84 1
    87   33   85 1
    88   34   86 1
    89   35   87 1
    90   36   88 1
    91   40   89 1
    92   41   90 1
    93   42   91 1
    94   43   92 1
@<TRIPOS>MOLECULE
1a2c_ligand_79
   92    94     0     0     0
SMALL
USER_CHARGES

mmff94s_NoEstat = 109.70
@<TRIPOS>ATOM
      1 C1         -8.1430   -5.2700   -1.6236 C.ar      1 <0>        -0.0708
      2 C2         -8.4504   -3.7980    0.2673 C.ar      1 <0>        -0.0872
      3 C3         -9.4290   -5.7773   -1.4378 C.ar      1 <0>        -0.2241
      4 C4         -9.7364   -4.3052    0.4531 C.ar      1 <0>        -0.1600
      5 C5         -7.6710   -4.2872   -0.7686 C.ar      1 <0>        -0.1356
      6 C6        -10.2258   -5.2949   -0.3994 C.ar      1 <0>         0.1290
      7 C7         -0.0512   -1.0561    0.2993 C.2       1 <0>         0.6664
      8 C8         -1.8469   -3.0457    2.1630 C.2       1 <0>         0.6651
      9 C9         -3.9484   -3.7154   -0.0348 C.2       1 <0>         0.6454
     10 C10         0.1087    6.2839    0.0320 C.cat     1 <0>         0.6349
     11 C11         2.5186   -3.1911    0.6823 C.3       1 <0>        -0.0642
     12 C12         2.4580   -4.6414    0.2376 C.3       1 <0>        -0.0747
     13 C13         1.4874   -1.4827    2.2418 C.3       1 <0>        -0.0873
     14 C14         0.4946   -5.0934    1.7133 C.3       1 <0>        -0.1371
     15 C15         0.0412   -1.4176    1.7503 C.3       1 <0>         0.0360
     16 C16         1.8865   -2.9529    2.0632 C.3       1 <0>        -0.0720
     17 C17         0.5665   -3.7001    2.3454 C.3       1 <0>         0.1201
     18 C18         1.0248   -5.1525    0.2868 C.3       1 <0>         0.1453
     19 C19        -5.5746   -0.7475    1.4860 C.3       1 <0>        -0.0968
     20 C20        -3.7112    0.7464    0.7408 C.3       1 <0>        -0.0986
     21 C21        -6.2790   -3.7375   -0.9703 C.3       1 <0>        -0.0191
     22 C22        -1.0374    2.7415   -0.6235 C.3       1 <0>        -0.1009
     23 C23         0.2513    2.2726   -1.3090 C.3       1 <0>        -0.0942
     24 C24        -3.2372   -1.0062    2.4788 C.3       1 <0>        -0.0988
     25 C25        -1.1758    4.2607   -0.6924 C.3       1 <0>         0.1966
     26 C26         1.7383    0.3016   -2.0469 C.3       1 <0>         0.1128
     27 C27        -2.8325   -2.1090    1.5076 C.3       1 <0>         0.0786
     28 C28        -5.2285   -4.5282   -0.1835 C.3       1 <0>         0.0744
     29 C29        -4.2955   -0.0321    1.9228 C.3       1 <0>        -0.0678
     30 C30         0.4555    0.7445   -1.3388 C.3       1 <0>         0.1065
     31 N1         -0.4979   -2.7598    1.9615 N.am      1 <0>        -0.4315
     32 N2          1.2089    6.8461    0.6711 N.pl3     1 <0>        -0.8671
     33 N3         -0.8437    7.1205   -0.5399 N.pl3     1 <0>        -0.8581
     34 N4          0.4455    0.1980   -0.0008 N.am      1 <0>        -0.5687
     35 N5         -3.9193   -2.9688    1.1410 N.am      1 <0>        -0.5746
     36 N6         -0.0506    4.8893   -0.0421 N.pl3     1 <0>        -0.7533
     37 O1         -0.5362   -1.8555   -0.4928 O.2       1 <0>        -0.5843
     38 O2         -2.2659   -3.9924    2.8322 O.2       1 <0>        -0.6812
     39 O3         -3.0587   -3.7239   -0.8825 O.2       1 <0>        -0.5788
     40 O4        -11.4813   -5.7887   -0.2191 O.3       1 <0>        -0.4938
     41 O5          0.9879   -6.5072   -0.1510 O.3       1 <0>        -0.6030
     42 O6          2.8703    0.8436   -1.3793 O.3       1 <0>        -0.5860
     43 O7         -4.9192   -5.7187   -0.8939 O.3       1 <0>        -0.6021
     44 H1         -7.5297   -5.6521   -2.4352 H         1 <0>         0.1412
     45 H2         -8.0776   -3.0267    0.9363 H         1 <0>         0.1451
     46 H3         -9.8045   -6.5479   -2.1053 H         1 <0>         0.1336
     47 H4        -10.3528   -3.9247    1.2634 H         1 <0>         0.1567
     48 H5          3.5627   -2.8549    0.7003 H         1 <0>         0.0649
     49 H6          2.0259   -2.5829   -0.0837 H         1 <0>         0.0476
     50 H7          2.8567   -4.7427   -0.7790 H         1 <0>         0.0641
     51 H8          3.1032   -5.2618    0.8729 H         1 <0>         0.0484
     52 H9          2.1569   -0.7868    1.7257 H         1 <0>         0.0596
     53 H10         1.5124   -1.2395    3.3116 H         1 <0>         0.0757
     54 H11         1.0921   -5.7802    2.3299 H         1 <0>         0.0782
     55 H12        -0.5175   -5.5090    1.7393 H         1 <0>         0.0812
     56 H13        -0.5378   -0.6778    2.3126 H         1 <0>         0.0731
     57 H14         2.6304   -3.2407    2.8169 H         1 <0>         0.0511
     58 H15         0.4523   -3.8218    3.4319 H         1 <0>         0.0753
     59 H16         0.3841   -4.5700   -0.3844 H         1 <0>         0.0427
     60 H17        -6.2768   -0.0422    1.0282 H         1 <0>         0.0450
     61 H18        -6.0867   -1.2049    2.3377 H         1 <0>         0.0406
     62 H19        -5.3599   -1.5330    0.7535 H         1 <0>         0.0274
     63 H20        -3.4369    0.0757   -0.0807 H         1 <0>         0.0476
     64 H21        -4.4352    1.4732    0.3573 H         1 <0>         0.0170
     65 H22        -2.8146    1.2981    1.0427 H         1 <0>         0.0477
     66 H23        -6.2612   -2.6822   -0.6666 H         1 <0>         0.0814
     67 H24        -6.0581   -3.7432   -2.0450 H         1 <0>         0.0685
     68 H25        -1.9092    2.2808   -1.1025 H         1 <0>         0.1016
     69 H26        -1.0467    2.4234    0.4259 H         1 <0>         0.0660
     70 H27         1.1110    2.7323   -0.8028 H         1 <0>         0.0512
     71 H28         0.2685    2.6560   -2.3373 H         1 <0>         0.0454
     72 H29        -2.3434   -0.4411    2.7760 H         1 <0>         0.0575
     73 H30        -3.6273   -1.4576    3.4018 H         1 <0>         0.0743
     74 H31        -2.0997    4.5809   -0.1994 H         1 <0>         0.0662
     75 H32        -1.2190    4.5954   -1.7340 H         1 <0>         0.0622
     76 H33         1.7614    0.6251   -3.0928 H         1 <0>         0.0321
     77 H34         1.8289   -0.7905   -2.0281 H         1 <0>         0.0204
     78 H35        -2.3687   -1.7253    0.5998 H         1 <0>         0.0749
     79 H36        -5.5950   -4.8071    0.8115 H         1 <0>         0.0719
     80 H37        -4.5575    0.6951    2.7011 H         1 <0>         0.0609
     81 H38        -0.3978    0.3245   -1.8868 H         1 <0>         0.1063
     82 H39         1.9287    6.2742    1.1048 H         1 <0>         0.4792
     83 H40         1.3225    7.8557    0.7245 H         1 <0>         0.4819
     84 H41        -1.6601    6.7429   -1.0146 H         1 <0>         0.4802
     85 H42        -0.7481    8.1323   -0.4992 H         1 <0>         0.4826
     86 H43         0.8216    0.7626    0.7549 H         1 <0>         0.3101
     87 H44        -4.7157   -3.0377    1.7764 H         1 <0>         0.3087
     88 H45         0.6822    4.3187    0.3968 H         1 <0>         0.4846
     89 H46       -11.5161   -6.7226   -0.4809 H         1 <0>         0.4194
     90 H47         1.8515   -6.8926    0.0654 H         1 <0>         0.4036
     91 H48         2.9636    1.7601   -1.6856 H         1 <0>         0.4114
     92 H49        -5.6257   -5.8474   -1.5477 H         1 <0>         0.3944
@<TRIPOS>BOND
     1    1    3 ar
     2    1    5 ar
     3    2    4 ar
     4    2    5 ar
     5    3    6 ar
     6    4    6 ar
     7    5   21 1
     8    6   40 1
     9    7   15 1
    10    7   34 am
    11    7   37 2
    12    8   27 1
    13    8   31 am
    14    8   38 2
    15    9   28 1
    16    9   35 am
    17    9   39 2
    18   10   32 1
    19   10   33 1
    20   10   36 1
    21   11   12 1
    22   11   16 1
    23   12   18 1
    24   13   15 1
    25   13   16 1
    26   14   17 1
    27   14   18 1
    28   15   31 1
    29   16   17 1
    30   17   31 1
    31   18   41 1
    32   19   29 1
    33   20   29 1
    34   21   28 1
    35   22   23 1
    36   22   25 1
    37   23   30 1
    38   24   27 1
    39   24   29 1
    40   25   36 1
    41   26   30 1
    42   26   42 1
    43   27   35 1
    44   28   43 1
    45   30   34 1
    46    1   44 1
    47    2   45 1
    48    3   46 1
    49    4   47 1
    50   11   48 1
    51   11   49 1
    52   12   50 1
    53   12   51 1
    54   13   52 1
    55   13   53 1
    56   14   54 1
    57   14   55 1
    58   15   56 1
    59   16   57 1
    60   17   58 1
    61   18   59 1
    62   19   60 1
    63   19   61 1
    64   19   62 1
    65   20   63 1
    66   20   64 1
    67   20   65 1
    68   21   66 1
    69   21   67 1
    70   22   68 1
    71   22   69 1
    72   23   70 1
    73   23   71 1
    74   24   72 1
    75   24   73 1
    76   25   74 1
    77   25   75 1
    78   26   76 1
    79   26   77 1
    80   27   78 1
    81   28   79 1
    82   29   80 1
    83   30   81 1
    84   32   82 1
    85   32   83 1
    86   33   84 1
    87   33   85 1
    88   34   86 1
    89   35   87 1
    90   36   88 1
    91   40   89 1
    92   41   90 1
    93   42   91 1
    94   43   92 1
@<TRIPOS>MOLECULE
1a2c_ligand_80
   92    94     0     0     0
SMALL
USER_CHARGES

mmff94s_NoEstat = 109.77
@<TRIPOS>ATOM
      1 C1         -8.6891   -1.0874    0.2432 C.ar      1 <0>        -0.0708
      2 C2         -6.8597    0.4829    0.0867 C.ar      1 <0>        -0.0872
      3 C3         -9.4297   -0.1524    0.9664 C.ar      1 <0>        -0.2241
      4 C4         -7.6003    1.4179    0.8099 C.ar      1 <0>        -0.1600
      5 C5         -7.4141   -0.7571   -0.1870 C.ar      1 <0>        -0.1356
      6 C6         -8.8853    1.1002    1.2498 C.ar      1 <0>         0.1290
      7 C7         -0.0512   -1.0561    0.2993 C.2       1 <0>         0.6664
      8 C8         -1.8469   -3.0457    2.1630 C.2       1 <0>         0.6651
      9 C9         -4.4743   -1.9575    0.3333 C.2       1 <0>         0.6454
     10 C10         2.0741    6.6678    0.2810 C.cat     1 <0>         0.6349
     11 C11         2.5186   -3.1911    0.6823 C.3       1 <0>        -0.0642
     12 C12         2.4580   -4.6414    0.2376 C.3       1 <0>        -0.0747
     13 C13         1.4874   -1.4827    2.2418 C.3       1 <0>        -0.0873
     14 C14         0.4946   -5.0934    1.7133 C.3       1 <0>        -0.1371
     15 C15         0.0412   -1.4176    1.7503 C.3       1 <0>         0.0360
     16 C16         1.8865   -2.9529    2.0632 C.3       1 <0>        -0.0720
     17 C17         0.5665   -3.7001    2.3454 C.3       1 <0>         0.1201
     18 C18         1.0248   -5.1525    0.2868 C.3       1 <0>         0.1453
     19 C19        -5.3726   -0.5418    3.1302 C.3       1 <0>        -0.0968
     20 C20        -3.4397    1.0389    2.9738 C.3       1 <0>        -0.0986
     21 C21        -6.6126   -1.7691   -0.9705 C.3       1 <0>        -0.0191
     22 C22         1.3474    3.0593   -0.5807 C.3       1 <0>        -0.1009
     23 C23         0.2513    2.2726   -1.3090 C.3       1 <0>        -0.0942
     24 C24        -2.9973   -1.3585    3.5851 C.3       1 <0>        -0.0988
     25 C25         1.0295    4.5528   -0.5576 C.3       1 <0>         0.1966
     26 C26         1.7383    0.3016   -2.0469 C.3       1 <0>         0.1128
     27 C27        -2.7865   -1.8644    2.1628 C.3       1 <0>         0.0786
     28 C28        -5.7663   -2.6636   -0.0588 C.3       1 <0>         0.0744
     29 C29        -3.9969   -0.1898    3.6979 C.3       1 <0>        -0.0678
     30 C30         0.4555    0.7445   -1.3388 C.3       1 <0>         0.1065
     31 N1         -0.4979   -2.7598    1.9615 N.am      1 <0>        -0.4315
     32 N2          3.1075    7.3179    0.9476 N.pl3     1 <0>        -0.8671
     33 N3          1.0228    7.4177   -0.2351 N.pl3     1 <0>        -0.8581
     34 N4          0.4455    0.1980   -0.0008 N.am      1 <0>        -0.5687
     35 N5         -3.9799   -2.3853    1.5634 N.am      1 <0>        -0.5746
     36 N6          2.0800    5.2710    0.1240 N.pl3     1 <0>        -0.7533
     37 O1         -0.5362   -1.8555   -0.4928 O.2       1 <0>        -0.5843
     38 O2         -2.2998   -4.1783    2.3409 O.2       1 <0>        -0.6812
     39 O3         -3.9527   -1.0962   -0.3713 O.2       1 <0>        -0.5788
     40 O4         -9.6087    2.0131    1.9541 O.3       1 <0>        -0.4938
     41 O5          0.9879   -6.5072   -0.1510 O.3       1 <0>        -0.6030
     42 O6          1.7296    0.7591   -3.3929 O.3       1 <0>        -0.5860
     43 O7         -5.4285   -3.8509   -0.7614 O.3       1 <0>        -0.6021
     44 H1         -9.1215   -2.0606    0.0275 H         1 <0>         0.1412
     45 H2         -5.8593    0.7393   -0.2523 H         1 <0>         0.1451
     46 H3        -10.4301   -0.4058    1.3062 H         1 <0>         0.1336
     47 H4         -7.1710    2.3925    1.0267 H         1 <0>         0.1567
     48 H5          3.5627   -2.8549    0.7003 H         1 <0>         0.0649
     49 H6          2.0259   -2.5829   -0.0837 H         1 <0>         0.0476
     50 H7          2.8567   -4.7427   -0.7790 H         1 <0>         0.0641
     51 H8          3.1032   -5.2618    0.8729 H         1 <0>         0.0484
     52 H9          2.1569   -0.7868    1.7257 H         1 <0>         0.0596
     53 H10         1.5124   -1.2395    3.3116 H         1 <0>         0.0757
     54 H11         1.0921   -5.7802    2.3299 H         1 <0>         0.0782
     55 H12        -0.5175   -5.5090    1.7393 H         1 <0>         0.0812
     56 H13        -0.5378   -0.6778    2.3126 H         1 <0>         0.0731
     57 H14         2.6304   -3.2407    2.8169 H         1 <0>         0.0511
     58 H15         0.4523   -3.8218    3.4319 H         1 <0>         0.0753
     59 H16         0.3841   -4.5700   -0.3844 H         1 <0>         0.0427
     60 H17        -6.0375    0.3284    3.1563 H         1 <0>         0.0450
     61 H18        -5.8542   -1.3328    3.7128 H         1 <0>         0.0406
     62 H19        -5.2988   -0.8789    2.0908 H         1 <0>         0.0274
     63 H20        -3.3028    0.8425    1.9049 H         1 <0>         0.0476
     64 H21        -4.1178    1.8926    3.0773 H         1 <0>         0.0170
     65 H22        -2.4708    1.3315    3.3922 H         1 <0>         0.0477
     66 H23        -5.9666   -1.2415   -1.6850 H         1 <0>         0.0814
     67 H24        -7.3067   -2.3638   -1.5776 H         1 <0>         0.0685
     68 H25         1.4494    2.6994    0.4497 H         1 <0>         0.1016
     69 H26         2.3163    2.9020   -1.0695 H         1 <0>         0.0660
     70 H27         0.1784    2.6377   -2.3425 H         1 <0>         0.0512
     71 H28        -0.7172    2.4951   -0.8432 H         1 <0>         0.0454
     72 H29        -2.0302   -1.0518    4.0061 H         1 <0>         0.0575
     73 H30        -3.3514   -2.1846    4.2177 H         1 <0>         0.0743
     74 H31         0.0800    4.7312   -0.0419 H         1 <0>         0.0662
     75 H32         0.9347    4.9409   -1.5770 H         1 <0>         0.0622
     76 H33         1.8500   -0.7877   -2.0488 H         1 <0>         0.0321
     77 H34         2.6170    0.7313   -1.5524 H         1 <0>         0.0204
     78 H35        -2.3647   -1.1082    1.5019 H         1 <0>         0.0749
     79 H36        -6.3120   -2.9453    0.8496 H         1 <0>         0.0719
     80 H37        -4.1195    0.0762    4.7551 H         1 <0>         0.0609
     81 H38        -0.3978    0.3245   -1.8868 H         1 <0>         0.1063
     82 H39         3.8950    6.8110    1.3428 H         1 <0>         0.4792
     83 H40         3.1016    8.3289    1.0610 H         1 <0>         0.4819
     84 H41         0.2512    6.9745   -0.7279 H         1 <0>         0.4802
     85 H42         0.9985    8.4296   -0.1342 H         1 <0>         0.4826
     86 H43         0.8216    0.7626    0.7549 H         1 <0>         0.3101
     87 H44        -4.4957   -3.1095    2.0656 H         1 <0>         0.3087
     88 H45         2.8803    4.7666    0.5244 H         1 <0>         0.4846
     89 H46       -10.1852    1.5647    2.5931 H         1 <0>         0.4194
     90 H47         1.8515   -6.8926    0.0654 H         1 <0>         0.4036
     91 H48         1.1820    0.1356   -3.8968 H         1 <0>         0.4114
     92 H49        -6.0237   -3.9035   -1.5269 H         1 <0>         0.3944
@<TRIPOS>BOND
     1    1    3 ar
     2    1    5 ar
     3    2    4 ar
     4    2    5 ar
     5    3    6 ar
     6    4    6 ar
     7    5   21 1
     8    6   40 1
     9    7   15 1
    10    7   34 am
    11    7   37 2
    12    8   27 1
    13    8   31 am
    14    8   38 2
    15    9   28 1
    16    9   35 am
    17    9   39 2
    18   10   32 1
    19   10   33 1
    20   10   36 1
    21   11   12 1
    22   11   16 1
    23   12   18 1
    24   13   15 1
    25   13   16 1
    26   14   17 1
    27   14   18 1
    28   15   31 1
    29   16   17 1
    30   17   31 1
    31   18   41 1
    32   19   29 1
    33   20   29 1
    34   21   28 1
    35   22   23 1
    36   22   25 1
    37   23   30 1
    38   24   27 1
    39   24   29 1
    40   25   36 1
    41   26   30 1
    42   26   42 1
    43   27   35 1
    44   28   43 1
    45   30   34 1
    46    1   44 1
    47    2   45 1
    48    3   46 1
    49    4   47 1
    50   11   48 1
    51   11   49 1
    52   12   50 1
    53   12   51 1
    54   13   52 1
    55   13   53 1
    56   14   54 1
    57   14   55 1
    58   15   56 1
    59   16   57 1
    60   17   58 1
    61   18   59 1
    62   19   60 1
    63   19   61 1
    64   19   62 1
    65   20   63 1
    66   20   64 1
    67   20   65 1
    68   21   66 1
    69   21   67 1
    70   22   68 1
    71   22   69 1
    72   23   70 1
    73   23   71 1
    74   24   72 1
    75   24   73 1
    76   25   74 1
    77   25   75 1
    78   26   76 1
    79   26   77 1
    80   27   78 1
    81   28   79 1
    82   29   80 1
    83   30   81 1
    84   32   82 1
    85   32   83 1
    86   33   84 1
    87   33   85 1
    88   34   86 1
    89   35   87 1
    90   36   88 1
    91   40   89 1
    92   41   90 1
    93   42   91 1
    94   43   92 1
@<TRIPOS>MOLECULE
1a2c_ligand_81
   92    94     0     0     0
SMALL
USER_CHARGES

mmff94s_NoEstat = 109.79
@<TRIPOS>ATOM
      1 C1          8.3103   -1.0475    6.6490 C.ar      1 <0>        -0.0708
      2 C2          6.7594   -2.8998    6.6321 C.ar      1 <0>        -0.0872
      3 C3          8.2150   -0.9804    8.0390 C.ar      1 <0>        -0.2241
      4 C4          6.6640   -2.8328    8.0220 C.ar      1 <0>        -0.1600
      5 C5          7.5813   -2.0063    5.9642 C.ar      1 <0>        -0.1356
      6 C6          7.3919   -1.8731    8.7255 C.ar      1 <0>         0.1290
      7 C7          0.1755   -1.0766    0.1327 C.2       1 <0>         0.6664
      8 C8          2.3785   -0.9757    2.2764 C.2       1 <0>         0.6651
      9 C9          5.2968   -1.9145    3.7000 C.2       1 <0>         0.6454
     10 C10         0.2323    5.6394    2.4404 C.cat     1 <0>         0.6349
     11 C11         2.4521   -5.3069   -0.2561 C.3       1 <0>        -0.0642
     12 C12         1.2413   -5.9691    0.3982 C.3       1 <0>        -0.0747
     13 C13         1.5734   -2.9393   -0.7647 C.3       1 <0>        -0.0873
     14 C14         1.0938   -4.1277    2.1072 C.3       1 <0>        -0.1371
     15 C15         1.5650   -1.6216    0.0133 C.3       1 <0>         0.0360
     16 C16         2.5597   -3.8106    0.0203 C.3       1 <0>        -0.0720
     17 C17         2.2934   -3.4012    1.4755 C.3       1 <0>         0.1201
     18 C18         1.1411   -5.6363    1.8853 C.3       1 <0>         0.1453
     19 C19         3.8896   -0.8379    6.4377 C.3       1 <0>        -0.0968
     20 C20         2.2599   -2.7349    6.3694 C.3       1 <0>        -0.0986
     21 C21         7.6850   -2.0794    4.4595 C.3       1 <0>        -0.0191
     22 C22        -0.6430    2.4326    0.6399 C.3       1 <0>        -0.1009
     23 C23        -1.2979    2.0260   -0.6854 C.3       1 <0>        -0.0942
     24 C24         1.9925   -0.8489    4.7298 C.3       1 <0>        -0.0988
     25 C25        -0.5996    3.9518    0.7888 C.3       1 <0>         0.1966
     26 C26        -2.1127    0.1273   -2.2253 C.3       1 <0>         0.1128
     27 C27         2.8496   -1.4560    3.6253 C.3       1 <0>         0.0786
     28 C28         6.6400   -1.1984    3.7670 C.3       1 <0>         0.0744
     29 C29         2.4383   -1.2292    6.1562 C.3       1 <0>        -0.0678
     30 C30        -1.4370    0.5062   -0.9051 C.3       1 <0>         0.1065
     31 N1          2.0322   -1.9586    1.3590 N.am      1 <0>        -0.4315
     32 N2          0.8416    5.9360    3.6551 N.pl3     1 <0>        -0.8671
     33 N3         -0.1798    6.6813    1.6165 N.pl3     1 <0>        -0.8581
     34 N4         -0.1481   -0.1440   -0.8342 N.am      1 <0>        -0.5687
     35 N5          4.2184   -1.0331    3.6724 N.am      1 <0>        -0.5746
     36 N6          0.0297    4.3079    2.0383 N.pl3     1 <0>        -0.7533
     37 O1         -0.5534   -1.4727    1.0347 O.2       1 <0>        -0.5843
     38 O2          2.3230    0.2335    2.0409 O.2       1 <0>        -0.6812
     39 O3          5.2019   -3.1398    3.6875 O.2       1 <0>        -0.5788
     40 O4          7.3001   -1.8086   10.0820 O.3       1 <0>        -0.4938
     41 O5          2.2611   -6.1715    2.5852 O.3       1 <0>        -0.6030
     42 O6         -2.2112   -1.2870   -2.3289 O.3       1 <0>        -0.5860
     43 O7          7.0680   -0.9312    2.4393 O.3       1 <0>        -0.6021
     44 H1          8.9541   -0.3478    6.1229 H         1 <0>         0.1412
     45 H2          6.1888   -3.6511    6.0922 H         1 <0>         0.1451
     46 H3          8.7845   -0.2308    8.5812 H         1 <0>         0.1336
     47 H4          6.0217   -3.5316    8.5514 H         1 <0>         0.1567
     48 H5          3.3605   -5.7937    0.1218 H         1 <0>         0.0649
     49 H6          2.4319   -5.4897   -1.3370 H         1 <0>         0.0476
     50 H7          0.3241   -5.6545   -0.1129 H         1 <0>         0.0641
     51 H8          1.3294   -7.0545    0.2691 H         1 <0>         0.0484
     52 H9          0.5754   -3.3919   -0.8000 H         1 <0>         0.0596
     53 H10         1.8977   -2.7914   -1.8003 H         1 <0>         0.0757
     54 H11         1.0807   -3.9085    3.1823 H         1 <0>         0.0782
     55 H12         0.1523   -3.7376    1.7002 H         1 <0>         0.0812
     56 H13         2.2202   -0.8626   -0.4249 H         1 <0>         0.0731
     57 H14         3.5726   -3.4842   -0.2571 H         1 <0>         0.0511
     58 H15         3.1875   -3.5701    2.0864 H         1 <0>         0.0753
     59 H16         0.2435   -6.1003    2.3075 H         1 <0>         0.0427
     60 H17         4.2001   -1.1859    7.4289 H         1 <0>         0.0450
     61 H18         4.0203    0.2482    6.4220 H         1 <0>         0.0406
     62 H19         4.5693   -1.2752    5.6986 H         1 <0>         0.0274
     63 H20         2.8852   -3.3113    5.6789 H         1 <0>         0.0476
     64 H21         2.5335   -3.0185    7.3913 H         1 <0>         0.0170
     65 H22         1.2173   -3.0301    6.2104 H         1 <0>         0.0477
     66 H23         7.5676   -3.1238    4.1408 H         1 <0>         0.0814
     67 H24         8.7032   -1.7908    4.1693 H         1 <0>         0.0685
     68 H25        -1.1995    2.0063    1.4826 H         1 <0>         0.1016
     69 H26         0.3766    2.0329    0.6979 H         1 <0>         0.0660
     70 H27        -0.7150    2.4492   -1.5148 H         1 <0>         0.0512
     71 H28        -2.2909    2.4892   -0.7497 H         1 <0>         0.0454
     72 H29         0.9469   -1.1516    4.5828 H         1 <0>         0.0575
     73 H30         2.0032    0.2464    4.6399 H         1 <0>         0.0743
     74 H31        -1.6136    4.3648    0.7674 H         1 <0>         0.0662
     75 H32        -0.0373    4.4024   -0.0355 H         1 <0>         0.0622
     76 H33        -1.5587    0.5035   -3.0917 H         1 <0>         0.0321
     77 H34        -3.1279    0.5382   -2.2680 H         1 <0>         0.0204
     78 H35         2.8203   -2.5449    3.6159 H         1 <0>         0.0749
     79 H36         6.5115   -0.2411    4.2859 H         1 <0>         0.0719
     80 H37         1.7968   -0.7138    6.8816 H         1 <0>         0.0609
     81 H38        -2.0581    0.1260   -0.0837 H         1 <0>         0.1063
     82 H39         1.1571    5.2076    4.2901 H         1 <0>         0.4792
     83 H40         0.9871    6.9003    3.9451 H         1 <0>         0.4819
     84 H41        -0.6286    6.5001    0.7219 H         1 <0>         0.4802
     85 H42        -0.0422    7.6522    1.8867 H         1 <0>         0.4826
     86 H43         0.5534    0.0962   -1.5282 H         1 <0>         0.3101
     87 H44         4.4137   -0.0309    3.6864 H         1 <0>         0.3087
     88 H45         0.3532    3.5780    2.6847 H         1 <0>         0.4846
     89 H46         7.3998   -0.8913   10.3827 H         1 <0>         0.4194
     90 H47         2.7873   -5.4145    2.8873 H         1 <0>         0.4036
     91 H48        -1.3448   -1.6067   -2.6281 H         1 <0>         0.4114
     92 H49         8.0124   -1.1538    2.3984 H         1 <0>         0.3944
@<TRIPOS>BOND
     1    1    3 ar
     2    1    5 ar
     3    2    4 ar
     4    2    5 ar
     5    3    6 ar
     6    4    6 ar
     7    5   21 1
     8    6   40 1
     9    7   15 1
    10    7   34 am
    11    7   37 2
    12    8   27 1
    13    8   31 am
    14    8   38 2
    15    9   28 1
    16    9   35 am
    17    9   39 2
    18   10   32 1
    19   10   33 1
    20   10   36 1
    21   11   12 1
    22   11   16 1
    23   12   18 1
    24   13   15 1
    25   13   16 1
    26   14   17 1
    27   14   18 1
    28   15   31 1
    29   16   17 1
    30   17   31 1
    31   18   41 1
    32   19   29 1
    33   20   29 1
    34   21   28 1
    35   22   23 1
    36   22   25 1
    37   23   30 1
    38   24   27 1
    39   24   29 1
    40   25   36 1
    41   26   30 1
    42   26   42 1
    43   27   35 1
    44   28   43 1
    45   30   34 1
    46    1   44 1
    47    2   45 1
    48    3   46 1
    49    4   47 1
    50   11   48 1
    51   11   49 1
    52   12   50 1
    53   12   51 1
    54   13   52 1
    55   13   53 1
    56   14   54 1
    57   14   55 1
    58   15   56 1
    59   16   57 1
    60   17   58 1
    61   18   59 1
    62   19   60 1
    63   19   61 1
    64   19   62 1
    65   20   63 1
    66   20   64 1
    67   20   65 1
    68   21   66 1
    69   21   67 1
    70   22   68 1
    71   22   69 1
    72   23   70 1
    73   23   71 1
    74   24   72 1
    75   24   73 1
    76   25   74 1
    77   25   75 1
    78   26   76 1
    79   26   77 1
    80   27   78 1
    81   28   79 1
    82   29   80 1
    83   30   81 1
    84   32   82 1
    85   32   83 1
    86   33   84 1
    87   33   85 1
    88   34   86 1
    89   35   87 1
    90   36   88 1
    91   40   89 1
    92   41   90 1
    93   42   91 1
    94   43   92 1
@<TRIPOS>MOLECULE
1a2c_ligand_82
   92    94     0     0     0
SMALL
USER_CHARGES

mmff94s_NoEstat = 109.82
@<TRIPOS>ATOM
      1 C1         -8.6891   -1.0874    0.2432 C.ar      1 <0>        -0.0708
      2 C2         -6.8597    0.4829    0.0867 C.ar      1 <0>        -0.0872
      3 C3         -9.4297   -0.1524    0.9664 C.ar      1 <0>        -0.2241
      4 C4         -7.6003    1.4179    0.8099 C.ar      1 <0>        -0.1600
      5 C5         -7.4141   -0.7571   -0.1870 C.ar      1 <0>        -0.1356
      6 C6         -8.8853    1.1002    1.2498 C.ar      1 <0>         0.1290
      7 C7         -0.0512   -1.0561    0.2993 C.2       1 <0>         0.6664
      8 C8         -1.8469   -3.0457    2.1630 C.2       1 <0>         0.6651
      9 C9         -4.4743   -1.9575    0.3333 C.2       1 <0>         0.6454
     10 C10        -0.9406    0.6782   -6.6110 C.cat     1 <0>         0.6349
     11 C11         2.5186   -3.1911    0.6823 C.3       1 <0>        -0.0642
     12 C12         2.4580   -4.6414    0.2376 C.3       1 <0>        -0.0747
     13 C13         1.4874   -1.4827    2.2418 C.3       1 <0>        -0.0873
     14 C14         0.4946   -5.0934    1.7133 C.3       1 <0>        -0.1371
     15 C15         0.0412   -1.4176    1.7503 C.3       1 <0>         0.0360
     16 C16         1.8865   -2.9529    2.0632 C.3       1 <0>        -0.0720
     17 C17         0.5665   -3.7001    2.3454 C.3       1 <0>         0.1201
     18 C18         1.0248   -5.1525    0.2868 C.3       1 <0>         0.1453
     19 C19        -5.3726   -0.5418    3.1302 C.3       1 <0>        -0.0968
     20 C20        -3.4397    1.0389    2.9738 C.3       1 <0>        -0.0986
     21 C21        -6.6126   -1.7691   -0.9705 C.3       1 <0>        -0.0191
     22 C22        -0.9951    2.0137   -3.0747 C.3       1 <0>        -0.1009
     23 C23        -0.8794    1.4488   -1.6540 C.3       1 <0>        -0.0942
     24 C24        -2.9973   -1.3585    3.5851 C.3       1 <0>        -0.0988
     25 C25        -0.9093    0.9015   -4.1176 C.3       1 <0>         0.1966
     26 C26         1.6856    1.6412   -1.5001 C.3       1 <0>         0.1128
     27 C27        -2.7865   -1.8644    2.1628 C.3       1 <0>         0.0786
     28 C28        -5.7663   -2.6636   -0.0588 C.3       1 <0>         0.0744
     29 C29        -3.9969   -0.1898    3.6979 C.3       1 <0>        -0.0678
     30 C30         0.4555    0.7445   -1.3388 C.3       1 <0>         0.1065
     31 N1         -0.4979   -2.7598    1.9615 N.am      1 <0>        -0.4315
     32 N2         -1.0455    1.2596   -7.8703 N.pl3     1 <0>        -0.8671
     33 N3         -0.7637   -0.6976   -6.5120 N.pl3     1 <0>        -0.8581
     34 N4          0.4455    0.1980   -0.0008 N.am      1 <0>        -0.5687
     35 N5         -3.9799   -2.3853    1.5634 N.am      1 <0>        -0.5746
     36 N6         -1.0107    1.4600   -5.4449 N.pl3     1 <0>        -0.7533
     37 O1         -0.5362   -1.8555   -0.4928 O.2       1 <0>        -0.5843
     38 O2         -2.2998   -4.1783    2.3409 O.2       1 <0>        -0.6812
     39 O3         -3.9527   -1.0962   -0.3713 O.2       1 <0>        -0.5788
     40 O4         -9.6087    2.0131    1.9541 O.3       1 <0>        -0.4938
     41 O5          0.9879   -6.5072   -0.1510 O.3       1 <0>        -0.6030
     42 O6          2.8639    0.9021   -1.2063 O.3       1 <0>        -0.5860
     43 O7         -5.4285   -3.8509   -0.7614 O.3       1 <0>        -0.6021
     44 H1         -9.1215   -2.0606    0.0275 H         1 <0>         0.1412
     45 H2         -5.8593    0.7393   -0.2523 H         1 <0>         0.1451
     46 H3        -10.4301   -0.4058    1.3062 H         1 <0>         0.1336
     47 H4         -7.1710    2.3925    1.0267 H         1 <0>         0.1567
     48 H5          3.5627   -2.8549    0.7003 H         1 <0>         0.0649
     49 H6          2.0259   -2.5829   -0.0837 H         1 <0>         0.0476
     50 H7          2.8567   -4.7427   -0.7790 H         1 <0>         0.0641
     51 H8          3.1032   -5.2618    0.8729 H         1 <0>         0.0484
     52 H9          2.1569   -0.7868    1.7257 H         1 <0>         0.0596
     53 H10         1.5124   -1.2395    3.3116 H         1 <0>         0.0757
     54 H11         1.0921   -5.7802    2.3299 H         1 <0>         0.0782
     55 H12        -0.5175   -5.5090    1.7393 H         1 <0>         0.0812
     56 H13        -0.5378   -0.6778    2.3126 H         1 <0>         0.0731
     57 H14         2.6304   -3.2407    2.8169 H         1 <0>         0.0511
     58 H15         0.4523   -3.8218    3.4319 H         1 <0>         0.0753
     59 H16         0.3841   -4.5700   -0.3844 H         1 <0>         0.0427
     60 H17        -6.0375    0.3284    3.1563 H         1 <0>         0.0450
     61 H18        -5.8542   -1.3328    3.7128 H         1 <0>         0.0406
     62 H19        -5.2988   -0.8789    2.0908 H         1 <0>         0.0274
     63 H20        -3.3028    0.8425    1.9049 H         1 <0>         0.0476
     64 H21        -4.1178    1.8926    3.0773 H         1 <0>         0.0170
     65 H22        -2.4708    1.3315    3.3922 H         1 <0>         0.0477
     66 H23        -5.9666   -1.2415   -1.6850 H         1 <0>         0.0814
     67 H24        -7.3067   -2.3638   -1.5776 H         1 <0>         0.0685
     68 H25        -1.9473    2.5434   -3.1941 H         1 <0>         0.1016
     69 H26        -0.1993    2.7456   -3.2583 H         1 <0>         0.0660
     70 H27        -1.7000    0.7382   -1.4859 H         1 <0>         0.0512
     71 H28        -1.0340    2.2618   -0.9330 H         1 <0>         0.0454
     72 H29        -2.0302   -1.0518    4.0061 H         1 <0>         0.0575
     73 H30        -3.3514   -2.1846    4.2177 H         1 <0>         0.0743
     74 H31        -1.7187    0.1787   -3.9697 H         1 <0>         0.0662
     75 H32         0.0401    0.3636   -4.0280 H         1 <0>         0.0622
     76 H33         1.6463    2.5133   -0.8391 H         1 <0>         0.0321
     77 H34         1.7645    2.0016   -2.5321 H         1 <0>         0.0204
     78 H35        -2.3647   -1.1082    1.5019 H         1 <0>         0.0749
     79 H36        -6.3120   -2.9453    0.8496 H         1 <0>         0.0719
     80 H37        -4.1195    0.0762    4.7551 H         1 <0>         0.0609
     81 H38         0.5463   -0.0881   -2.0483 H         1 <0>         0.1063
     82 H39        -1.1773    2.2602   -7.9911 H         1 <0>         0.4792
     83 H40        -0.9951    0.6924   -8.7134 H         1 <0>         0.4819
     84 H41        -0.6834   -1.1551   -5.6072 H         1 <0>         0.4802
     85 H42        -0.7090   -1.2825   -7.3424 H         1 <0>         0.4826
     86 H43         0.8216    0.7626    0.7549 H         1 <0>         0.3101
     87 H44        -4.4957   -3.1095    2.0656 H         1 <0>         0.3087
     88 H45        -1.1420    2.4704   -5.5758 H         1 <0>         0.4846
     89 H46       -10.1852    1.5647    2.5931 H         1 <0>         0.4194
     90 H47         1.8515   -6.8926    0.0654 H         1 <0>         0.4036
     91 H48         2.9483    0.8828   -0.2393 H         1 <0>         0.4114
     92 H49        -6.0237   -3.9035   -1.5269 H         1 <0>         0.3944
@<TRIPOS>BOND
     1    1    3 ar
     2    1    5 ar
     3    2    4 ar
     4    2    5 ar
     5    3    6 ar
     6    4    6 ar
     7    5   21 1
     8    6   40 1
     9    7   15 1
    10    7   34 am
    11    7   37 2
    12    8   27 1
    13    8   31 am
    14    8   38 2
    15    9   28 1
    16    9   35 am
    17    9   39 2
    18   10   32 1
    19   10   33 1
    20   10   36 1
    21   11   12 1
    22   11   16 1
    23   12   18 1
    24   13   15 1
    25   13   16 1
    26   14   17 1
    27   14   18 1
    28   15   31 1
    29   16   17 1
    30   17   31 1
    31   18   41 1
    32   19   29 1
    33   20   29 1
    34   21   28 1
    35   22   23 1
    36   22   25 1
    37   23   30 1
    38   24   27 1
    39   24   29 1
    40   25   36 1
    41   26   30 1
    42   26   42 1
    43   27   35 1
    44   28   43 1
    45   30   34 1
    46    1   44 1
    47    2   45 1
    48    3   46 1
    49    4   47 1
    50   11   48 1
    51   11   49 1
    52   12   50 1
    53   12   51 1
    54   13   52 1
    55   13   53 1
    56   14   54 1
    57   14   55 1
    58   15   56 1
    59   16   57 1
    60   17   58 1
    61   18   59 1
    62   19   60 1
    63   19   61 1
    64   19   62 1
    65   20   63 1
    66   20   64 1
    67   20   65 1
    68   21   66 1
    69   21   67 1
    70   22   68 1
    71   22   69 1
    72   23   70 1
    73   23   71 1
    74   24   72 1
    75   24   73 1
    76   25   74 1
    77   25   75 1
    78   26   76 1
    79   26   77 1
    80   27   78 1
    81   28   79 1
    82   29   80 1
    83   30   81 1
    84   32   82 1
    85   32   83 1
    86   33   84 1
    87   33   85 1
    88   34   86 1
    89   35   87 1
    90   36   88 1
    91   40   89 1
    92   41   90 1
    93   42   91 1
    94   43   92 1
@<TRIPOS>MOLECULE
1a2c_ligand_83
   92    94     0     0     0
SMALL
USER_CHARGES

mmff94s_NoEstat = 109.83
@<TRIPOS>ATOM
      1 C1          8.3103   -1.0475    6.6490 C.ar      1 <0>        -0.0708
      2 C2          6.7594   -2.8998    6.6321 C.ar      1 <0>        -0.0872
      3 C3          8.2150   -0.9804    8.0390 C.ar      1 <0>        -0.2241
      4 C4          6.6640   -2.8328    8.0220 C.ar      1 <0>        -0.1600
      5 C5          7.5813   -2.0063    5.9642 C.ar      1 <0>        -0.1356
      6 C6          7.3919   -1.8731    8.7255 C.ar      1 <0>         0.1290
      7 C7          0.1755   -1.0766    0.1327 C.2       1 <0>         0.6664
      8 C8          2.3785   -0.9757    2.2764 C.2       1 <0>         0.6651
      9 C9          5.2968   -1.9145    3.7000 C.2       1 <0>         0.6454
     10 C10         0.0566    5.9382   -0.9679 C.cat     1 <0>         0.6349
     11 C11         2.4521   -5.3069   -0.2561 C.3       1 <0>        -0.0642
     12 C12         1.2413   -5.9691    0.3982 C.3       1 <0>        -0.0747
     13 C13         1.5734   -2.9393   -0.7647 C.3       1 <0>        -0.0873
     14 C14         1.0938   -4.1277    2.1072 C.3       1 <0>        -0.1371
     15 C15         1.5650   -1.6216    0.0133 C.3       1 <0>         0.0360
     16 C16         2.5597   -3.8106    0.0203 C.3       1 <0>        -0.0720
     17 C17         2.2934   -3.4012    1.4755 C.3       1 <0>         0.1201
     18 C18         1.1411   -5.6363    1.8853 C.3       1 <0>         0.1453
     19 C19         3.8896   -0.8379    6.4377 C.3       1 <0>        -0.0968
     20 C20         2.2599   -2.7349    6.3694 C.3       1 <0>        -0.0986
     21 C21         7.6850   -2.0794    4.4595 C.3       1 <0>        -0.0191
     22 C22        -0.8392    2.2664   -0.8852 C.3       1 <0>        -0.1009
     23 C23        -1.6754    1.2905   -1.7214 C.3       1 <0>        -0.0942
     24 C24         1.9925   -0.8489    4.7298 C.3       1 <0>        -0.0988
     25 C25        -0.9003    3.6784   -1.4634 C.3       1 <0>         0.1966
     26 C26        -2.5783   -1.1036   -2.0263 C.3       1 <0>         0.1128
     27 C27         2.8496   -1.4560    3.6253 C.3       1 <0>         0.0786
     28 C28         6.6400   -1.1984    3.7670 C.3       1 <0>         0.0744
     29 C29         2.4383   -1.2292    6.1562 C.3       1 <0>        -0.0678
     30 C30        -1.7203   -0.1547   -1.1858 C.3       1 <0>         0.1065
     31 N1          2.0322   -1.9586    1.3590 N.am      1 <0>        -0.4315
     32 N2          0.8383    6.7654   -0.1682 N.pl3     1 <0>        -0.8671
     33 N3         -0.5783    6.4758   -2.0824 N.pl3     1 <0>        -0.8581
     34 N4         -0.3878   -0.7030   -1.0725 N.am      1 <0>        -0.5687
     35 N5          4.2184   -1.0331    3.6724 N.am      1 <0>        -0.5746
     36 N6         -0.0981    4.5744   -0.6649 N.pl3     1 <0>        -0.7533
     37 O1         -0.3509   -1.0007    1.2367 O.2       1 <0>        -0.5843
     38 O2          2.3230    0.2335    2.0409 O.2       1 <0>        -0.6812
     39 O3          5.2019   -3.1398    3.6875 O.2       1 <0>        -0.5788
     40 O4          7.3001   -1.8086   10.0820 O.3       1 <0>        -0.4938
     41 O5          2.2611   -6.1715    2.5852 O.3       1 <0>        -0.6030
     42 O6         -2.5724   -2.4015   -1.4465 O.3       1 <0>        -0.5860
     43 O7          7.0680   -0.9312    2.4393 O.3       1 <0>        -0.6021
     44 H1          8.9541   -0.3478    6.1229 H         1 <0>         0.1412
     45 H2          6.1888   -3.6511    6.0922 H         1 <0>         0.1451
     46 H3          8.7845   -0.2308    8.5812 H         1 <0>         0.1336
     47 H4          6.0217   -3.5316    8.5514 H         1 <0>         0.1567
     48 H5          3.3605   -5.7937    0.1218 H         1 <0>         0.0649
     49 H6          2.4319   -5.4897   -1.3370 H         1 <0>         0.0476
     50 H7          0.3241   -5.6545   -0.1129 H         1 <0>         0.0641
     51 H8          1.3294   -7.0545    0.2691 H         1 <0>         0.0484
     52 H9          0.5754   -3.3919   -0.8000 H         1 <0>         0.0596
     53 H10         1.8977   -2.7914   -1.8003 H         1 <0>         0.0757
     54 H11         1.0807   -3.9085    3.1823 H         1 <0>         0.0782
     55 H12         0.1523   -3.7376    1.7002 H         1 <0>         0.0812
     56 H13         2.2202   -0.8626   -0.4249 H         1 <0>         0.0731
     57 H14         3.5726   -3.4842   -0.2571 H         1 <0>         0.0511
     58 H15         3.1875   -3.5701    2.0864 H         1 <0>         0.0753
     59 H16         0.2435   -6.1003    2.3075 H         1 <0>         0.0427
     60 H17         4.2001   -1.1859    7.4289 H         1 <0>         0.0450
     61 H18         4.0203    0.2482    6.4220 H         1 <0>         0.0406
     62 H19         4.5693   -1.2752    5.6986 H         1 <0>         0.0274
     63 H20         2.8852   -3.3113    5.6789 H         1 <0>         0.0476
     64 H21         2.5335   -3.0185    7.3913 H         1 <0>         0.0170
     65 H22         1.2173   -3.0301    6.2104 H         1 <0>         0.0477
     66 H23         7.5676   -3.1238    4.1408 H         1 <0>         0.0814
     67 H24         8.7032   -1.7908    4.1693 H         1 <0>         0.0685
     68 H25        -1.2041    2.2870    0.1483 H         1 <0>         0.1016
     69 H26         0.2054    1.9349   -0.8467 H         1 <0>         0.0660
     70 H27        -1.2820    1.2733   -2.7469 H         1 <0>         0.0512
     71 H28        -2.7004    1.6751   -1.7996 H         1 <0>         0.0454
     72 H29         0.9469   -1.1516    4.5828 H         1 <0>         0.0575
     73 H30         2.0032    0.2464    4.6399 H         1 <0>         0.0743
     74 H31        -1.9343    4.0389   -1.4775 H         1 <0>         0.0662
     75 H32        -0.5286    3.6880   -2.4933 H         1 <0>         0.0622
     76 H33        -2.2157   -1.1795   -3.0567 H         1 <0>         0.0321
     77 H34        -3.6169   -0.7550   -2.0576 H         1 <0>         0.0204
     78 H35         2.8203   -2.5449    3.6159 H         1 <0>         0.0749
     79 H36         6.5115   -0.2411    4.2859 H         1 <0>         0.0719
     80 H37         1.7968   -0.7138    6.8816 H         1 <0>         0.0609
     81 H38        -2.1562   -0.1031   -0.1797 H         1 <0>         0.1063
     82 H39         1.3192    6.4171    0.6569 H         1 <0>         0.4792
     83 H40         0.9489    7.7525   -0.3884 H         1 <0>         0.4819
     84 H41        -1.1572    5.8995   -2.6884 H         1 <0>         0.4802
     85 H42        -0.4794    7.4595   -2.3213 H         1 <0>         0.4826
     86 H43         0.1607   -0.8193   -1.9192 H         1 <0>         0.3101
     87 H44         4.4137   -0.0309    3.6864 H         1 <0>         0.3087
     88 H45         0.3928    4.2301    0.1692 H         1 <0>         0.4846
     89 H46         7.3998   -0.8913   10.3827 H         1 <0>         0.4194
     90 H47         2.7873   -5.4145    2.8873 H         1 <0>         0.4036
     91 H48        -1.7464   -2.8287   -1.7250 H         1 <0>         0.4114
     92 H49         8.0124   -1.1538    2.3984 H         1 <0>         0.3944
@<TRIPOS>BOND
     1    1    3 ar
     2    1    5 ar
     3    2    4 ar
     4    2    5 ar
     5    3    6 ar
     6    4    6 ar
     7    5   21 1
     8    6   40 1
     9    7   15 1
    10    7   34 am
    11    7   37 2
    12    8   27 1
    13    8   31 am
    14    8   38 2
    15    9   28 1
    16    9   35 am
    17    9   39 2
    18   10   32 1
    19   10   33 1
    20   10   36 1
    21   11   12 1
    22   11   16 1
    23   12   18 1
    24   13   15 1
    25   13   16 1
    26   14   17 1
    27   14   18 1
    28   15   31 1
    29   16   17 1
    30   17   31 1
    31   18   41 1
    32   19   29 1
    33   20   29 1
    34   21   28 1
    35   22   23 1
    36   22   25 1
    37   23   30 1
    38   24   27 1
    39   24   29 1
    40   25   36 1
    41   26   30 1
    42   26   42 1
    43   27   35 1
    44   28   43 1
    45   30   34 1
    46    1   44 1
    47    2   45 1
    48    3   46 1
    49    4   47 1
    50   11   48 1
    51   11   49 1
    52   12   50 1
    53   12   51 1
    54   13   52 1
    55   13   53 1
    56   14   54 1
    57   14   55 1
    58   15   56 1
    59   16   57 1
    60   17   58 1
    61   18   59 1
    62   19   60 1
    63   19   61 1
    64   19   62 1
    65   20   63 1
    66   20   64 1
    67   20   65 1
    68   21   66 1
    69   21   67 1
    70   22   68 1
    71   22   69 1
    72   23   70 1
    73   23   71 1
    74   24   72 1
    75   24   73 1
    76   25   74 1
    77   25   75 1
    78   26   76 1
    79   26   77 1
    80   27   78 1
    81   28   79 1
    82   29   80 1
    83   30   81 1
    84   32   82 1
    85   32   83 1
    86   33   84 1
    87   33   85 1
    88   34   86 1
    89   35   87 1
    90   36   88 1
    91   40   89 1
    92   41   90 1
    93   42   91 1
    94   43   92 1
@<TRIPOS>MOLECULE
1a2c_ligand_84
   92    94     0     0     0
SMALL
USER_CHARGES

mmff94s_NoEstat = 109.88
@<TRIPOS>ATOM
      1 C1         -8.5516    0.4596   -1.7234 C.ar      1 <0>        -0.0708
      2 C2         -6.5784    1.6634   -1.0203 C.ar      1 <0>        -0.0872
      3 C3         -9.3358    1.2599   -0.8927 C.ar      1 <0>        -0.2241
      4 C4         -7.3626    2.4638   -0.1897 C.ar      1 <0>        -0.1600
      5 C5         -7.1834    0.6721   -1.7761 C.ar      1 <0>        -0.1356
      6 C6         -8.7413    2.2621   -0.1258 C.ar      1 <0>         0.1290
      7 C7         -0.1674   -1.0853   -0.0424 C.2       1 <0>         0.6664
      8 C8         -2.5997   -3.1326    0.7250 C.2       1 <0>         0.6651
      9 C9         -4.5933   -1.1215   -1.1219 C.2       1 <0>         0.6454
     10 C10         1.7841    7.1778   -1.8320 C.cat     1 <0>         0.6349
     11 C11         2.0445   -3.7524    0.2047 C.3       1 <0>        -0.0642
     12 C12         2.1951   -5.1517   -0.3975 C.3       1 <0>        -0.0747
     13 C13         0.7864   -2.3272    1.9103 C.3       1 <0>        -0.0873
     14 C14        -0.3466   -4.9962   -0.4055 C.3       1 <0>        -0.1371
     15 C15        -0.4770   -1.8334    1.2187 C.3       1 <0>         0.0360
     16 C16         1.0305   -3.7327    1.3503 C.3       1 <0>        -0.0720
     17 C17        -0.3661   -4.2312    0.9284 C.3       1 <0>         0.1201
     18 C18         0.8694   -5.9135   -0.5141 C.3       1 <0>         0.1453
     19 C19        -5.9631   -0.4404    1.7581 C.3       1 <0>        -0.0968
     20 C20        -3.8887    0.7550    2.4841 C.3       1 <0>        -0.0986
     21 C21        -6.3345   -0.1939   -2.6760 C.3       1 <0>        -0.0191
     22 C22         1.3330    3.4344   -1.5576 C.3       1 <0>        -0.1009
     23 C23         0.9718    2.4190   -0.4671 C.3       1 <0>        -0.0942
     24 C24        -3.8619   -1.7555    2.3678 C.3       1 <0>        -0.0988
     25 C25         1.3683    4.8545   -0.9971 C.3       1 <0>         0.1966
     26 C26         2.3035    0.4585   -1.4784 C.3       1 <0>         0.1128
     27 C27        -3.3800   -1.8574    0.9254 C.3       1 <0>         0.0786
     28 C28        -5.8260   -1.4472   -1.9560 C.3       1 <0>         0.0744
     29 C29        -4.7285   -0.5135    2.6578 C.3       1 <0>        -0.0678
     30 C30         0.9627    0.9465   -0.9241 C.3       1 <0>         0.1065
     31 N1         -1.2224   -3.0398    0.8850 N.am      1 <0>        -0.4315
     32 N2          2.1098    8.0431   -2.8712 N.pl3     1 <0>        -0.8671
     33 N3          1.5386    7.7001   -0.5667 N.pl3     1 <0>        -0.8581
     34 N4          0.5562    0.0753    0.1551 N.am      1 <0>        -0.5687
     35 N5         -4.4491   -1.9660   -0.0233 N.am      1 <0>        -0.5746
     36 N6          1.7005    5.7909   -2.0444 N.pl3     1 <0>        -0.7533
     37 O1         -0.5544   -1.5275   -1.1177 O.2       1 <0>        -0.5843
     38 O2         -3.1933   -4.1752    0.4418 O.2       1 <0>        -0.6812
     39 O3         -3.8320   -0.1982   -1.4017 O.2       1 <0>        -0.5788
     40 O4         -9.5068    3.0441    0.6836 O.3       1 <0>        -0.4938
     41 O5          0.7872   -6.8901    0.5248 O.3       1 <0>        -0.6030
     42 O6          3.3063    0.5601   -0.4760 O.3       1 <0>        -0.5860
     43 O7         -5.4630   -2.4207   -2.9245 O.3       1 <0>        -0.6021
     44 H1         -9.0236   -0.3186   -2.3169 H         1 <0>         0.1412
     45 H2         -5.5048    1.8280   -1.0640 H         1 <0>         0.1451
     46 H3        -10.4091    1.0980   -0.8474 H         1 <0>         0.1336
     47 H4         -6.8937    3.2435    0.4047 H         1 <0>         0.1567
     48 H5          3.0220   -3.4003    0.5555 H         1 <0>         0.0649
     49 H6          1.7363   -3.0584   -0.5866 H         1 <0>         0.0476
     50 H7          2.6388   -5.0399   -1.3944 H         1 <0>         0.0641
     51 H8          2.9088   -5.7297    0.2024 H         1 <0>         0.0484
     52 H9          1.6439   -1.6583    1.7836 H         1 <0>         0.0596
     53 H10         0.5887   -2.4119    2.9867 H         1 <0>         0.0757
     54 H11        -1.2632   -5.5927   -0.4872 H         1 <0>         0.0782
     55 H12        -0.3526   -4.2949   -1.2498 H         1 <0>         0.0812
     56 H13        -1.0651   -1.1731    1.8629 H         1 <0>         0.0731
     57 H14         1.4245   -4.3763    2.1480 H         1 <0>         0.0511
     58 H15        -0.7725   -4.8823    1.7135 H         1 <0>         0.0753
     59 H16         0.8433   -6.4624   -1.4612 H         1 <0>         0.0427
     60 H17        -6.5181    0.4873    1.9352 H         1 <0>         0.0450
     61 H18        -6.6497   -1.2692    1.9547 H         1 <0>         0.0406
     62 H19        -5.6850   -0.4702    0.6992 H         1 <0>         0.0274
     63 H20        -3.5277    0.8553    1.4548 H         1 <0>         0.0476
     64 H21        -4.4764    1.6472    2.7254 H         1 <0>         0.0170
     65 H22        -3.0188    0.7404    3.1493 H         1 <0>         0.0477
     66 H23        -5.4866    0.3964   -3.0483 H         1 <0>         0.0814
     67 H24        -6.9273   -0.4570   -3.5611 H         1 <0>         0.0685
     68 H25         2.3127    3.1949   -1.9871 H         1 <0>         0.1016
     69 H26         0.6063    3.3858   -2.3774 H         1 <0>         0.0660
     70 H27        -0.0191    2.6679   -0.0634 H         1 <0>         0.0512
     71 H28         1.6731    2.5296    0.3700 H         1 <0>         0.0454
     72 H29        -2.9928   -1.7573    3.0396 H         1 <0>         0.0575
     73 H30        -4.4407   -2.6540    2.6237 H         1 <0>         0.0743
     74 H31         2.1145    4.9295   -0.1990 H         1 <0>         0.0662
     75 H32         0.3959    5.1239   -0.5723 H         1 <0>         0.0622
     76 H33         2.6215    1.0387   -2.3510 H         1 <0>         0.0321
     77 H34         2.2342   -0.5935   -1.7781 H         1 <0>         0.0204
     78 H35        -2.7366   -1.0282    0.6336 H         1 <0>         0.0749
     79 H36        -6.5960   -1.8796   -1.3060 H         1 <0>         0.0719
     80 H37        -5.0656   -0.5471    3.7011 H         1 <0>         0.0609
     81 H38         0.2159    0.8710   -1.7251 H         1 <0>         0.1063
     82 H39         2.2991    7.7066   -3.8115 H         1 <0>         0.4792
     83 H40         2.1705    9.0468   -2.7159 H         1 <0>         0.4819
     84 H41         1.2981    7.0960    0.2155 H         1 <0>         0.4802
     85 H42         1.5923    8.7005   -0.3905 H         1 <0>         0.4826
     86 H43         0.8147    0.3282    1.1041 H         1 <0>         0.3101
     87 H44        -5.1428   -2.7027    0.1135 H         1 <0>         0.3087
     88 H45         1.8913    5.4593   -2.9977 H         1 <0>         0.4846
     89 H46       -10.2616    2.5380    1.0243 H         1 <0>         0.4194
     90 H47         1.3049   -6.5470    1.2701 H         1 <0>         0.4036
     91 H48         3.5968    1.4864   -0.4636 H         1 <0>         0.4114
     92 H49        -5.8649   -2.1450   -3.7644 H         1 <0>         0.3944
@<TRIPOS>BOND
     1    1    3 ar
     2    1    5 ar
     3    2    4 ar
     4    2    5 ar
     5    3    6 ar
     6    4    6 ar
     7    5   21 1
     8    6   40 1
     9    7   15 1
    10    7   34 am
    11    7   37 2
    12    8   27 1
    13    8   31 am
    14    8   38 2
    15    9   28 1
    16    9   35 am
    17    9   39 2
    18   10   32 1
    19   10   33 1
    20   10   36 1
    21   11   12 1
    22   11   16 1
    23   12   18 1
    24   13   15 1
    25   13   16 1
    26   14   17 1
    27   14   18 1
    28   15   31 1
    29   16   17 1
    30   17   31 1
    31   18   41 1
    32   19   29 1
    33   20   29 1
    34   21   28 1
    35   22   23 1
    36   22   25 1
    37   23   30 1
    38   24   27 1
    39   24   29 1
    40   25   36 1
    41   26   30 1
    42   26   42 1
    43   27   35 1
    44   28   43 1
    45   30   34 1
    46    1   44 1
    47    2   45 1
    48    3   46 1
    49    4   47 1
    50   11   48 1
    51   11   49 1
    52   12   50 1
    53   12   51 1
    54   13   52 1
    55   13   53 1
    56   14   54 1
    57   14   55 1
    58   15   56 1
    59   16   57 1
    60   17   58 1
    61   18   59 1
    62   19   60 1
    63   19   61 1
    64   19   62 1
    65   20   63 1
    66   20   64 1
    67   20   65 1
    68   21   66 1
    69   21   67 1
    70   22   68 1
    71   22   69 1
    72   23   70 1
    73   23   71 1
    74   24   72 1
    75   24   73 1
    76   25   74 1
    77   25   75 1
    78   26   76 1
    79   26   77 1
    80   27   78 1
    81   28   79 1
    82   29   80 1
    83   30   81 1
    84   32   82 1
    85   32   83 1
    86   33   84 1
    87   33   85 1
    88   34   86 1
    89   35   87 1
    90   36   88 1
    91   40   89 1
    92   41   90 1
    93   42   91 1
    94   43   92 1
@<TRIPOS>MOLECULE
1a2c_ligand_85
   92    94     0     0     0
SMALL
USER_CHARGES

mmff94s_NoEstat = 109.89
@<TRIPOS>ATOM
      1 C1          9.9563   -1.0986    4.0997 C.ar      1 <0>        -0.0708
      2 C2          8.8528   -0.7412    6.2190 C.ar      1 <0>        -0.0872
      3 C3         11.0523   -0.3601    4.5459 C.ar      1 <0>        -0.2241
      4 C4          9.9488   -0.0027    6.6652 C.ar      1 <0>        -0.1600
      5 C5          8.8713   -1.2793    4.9423 C.ar      1 <0>        -0.1356
      6 C6         11.0485    0.1878    5.8286 C.ar      1 <0>         0.1290
      7 C7          0.1755   -1.0766    0.1327 C.2       1 <0>         0.6664
      8 C8          2.3785   -0.9757    2.2764 C.2       1 <0>         0.6651
      9 C9          5.2968   -1.9145    3.7000 C.2       1 <0>         0.6454
     10 C10        -1.2861    1.9242    4.3304 C.cat     1 <0>         0.6349
     11 C11         2.4521   -5.3069   -0.2561 C.3       1 <0>        -0.0642
     12 C12         1.2413   -5.9691    0.3982 C.3       1 <0>        -0.0747
     13 C13         1.5734   -2.9393   -0.7647 C.3       1 <0>        -0.0873
     14 C14         1.0938   -4.1277    2.1072 C.3       1 <0>        -0.1371
     15 C15         1.5650   -1.6216    0.0133 C.3       1 <0>         0.0360
     16 C16         2.5597   -3.8106    0.0203 C.3       1 <0>        -0.0720
     17 C17         2.2934   -3.4012    1.4755 C.3       1 <0>         0.1201
     18 C18         1.1411   -5.6363    1.8853 C.3       1 <0>         0.1453
     19 C19         3.8896   -0.8379    6.4377 C.3       1 <0>        -0.0968
     20 C20         2.2599   -2.7349    6.3694 C.3       1 <0>        -0.0986
     21 C21         7.6850   -2.0794    4.4595 C.3       1 <0>        -0.0191
     22 C22        -0.6430    2.4326    0.6399 C.3       1 <0>        -0.1009
     23 C23        -1.2979    2.0260   -0.6854 C.3       1 <0>        -0.0942
     24 C24         1.9925   -0.8489    4.7298 C.3       1 <0>        -0.0988
     25 C25        -1.4152    1.8692    1.8307 C.3       1 <0>         0.1966
     26 C26        -2.1127    0.1273   -2.2253 C.3       1 <0>         0.1128
     27 C27         2.8496   -1.4560    3.6253 C.3       1 <0>         0.0786
     28 C28         6.6400   -1.1984    3.7670 C.3       1 <0>         0.0744
     29 C29         2.4383   -1.2292    6.1562 C.3       1 <0>        -0.0678
     30 C30        -1.4370    0.5062   -0.9051 C.3       1 <0>         0.1065
     31 N1          2.0322   -1.9586    1.3590 N.am      1 <0>        -0.4315
     32 N2         -0.6437    2.3351    5.4937 N.pl3     1 <0>        -0.8671
     33 N3         -2.4412    1.1561    4.4289 N.pl3     1 <0>        -0.8581
     34 N4         -0.1481   -0.1440   -0.8342 N.am      1 <0>        -0.5687
     35 N5          4.2184   -1.0331    3.6724 N.am      1 <0>        -0.5746
     36 N6         -0.7846    2.2739    3.0647 N.pl3     1 <0>        -0.7533
     37 O1         -0.5534   -1.4727    1.0347 O.2       1 <0>        -0.5843
     38 O2          2.3230    0.2335    2.0409 O.2       1 <0>        -0.6812
     39 O3          5.2019   -3.1398    3.6875 O.2       1 <0>        -0.5788
     40 O4         12.1187    0.9071    6.2646 O.3       1 <0>        -0.4938
     41 O5          2.2611   -6.1715    2.5852 O.3       1 <0>        -0.6030
     42 O6         -2.2112   -1.2870   -2.3289 O.3       1 <0>        -0.5860
     43 O7          7.0680   -0.9312    2.4393 O.3       1 <0>        -0.6021
     44 H1          9.9683   -1.5215    3.0988 H         1 <0>         0.1412
     45 H2          8.0003   -0.8848    6.8778 H         1 <0>         0.1451
     46 H3         11.9060   -0.2154    3.8896 H         1 <0>         0.1336
     47 H4          9.9403    0.4209    7.6660 H         1 <0>         0.1567
     48 H5          3.3605   -5.7937    0.1218 H         1 <0>         0.0649
     49 H6          2.4319   -5.4897   -1.3370 H         1 <0>         0.0476
     50 H7          0.3241   -5.6545   -0.1129 H         1 <0>         0.0641
     51 H8          1.3294   -7.0545    0.2691 H         1 <0>         0.0484
     52 H9          0.5754   -3.3919   -0.8000 H         1 <0>         0.0596
     53 H10         1.8977   -2.7914   -1.8003 H         1 <0>         0.0757
     54 H11         1.0807   -3.9085    3.1823 H         1 <0>         0.0782
     55 H12         0.1523   -3.7376    1.7002 H         1 <0>         0.0812
     56 H13         2.2202   -0.8626   -0.4249 H         1 <0>         0.0731
     57 H14         3.5726   -3.4842   -0.2571 H         1 <0>         0.0511
     58 H15         3.1875   -3.5701    2.0864 H         1 <0>         0.0753
     59 H16         0.2435   -6.1003    2.3075 H         1 <0>         0.0427
     60 H17         4.2001   -1.1859    7.4289 H         1 <0>         0.0450
     61 H18         4.0203    0.2482    6.4220 H         1 <0>         0.0406
     62 H19         4.5693   -1.2752    5.6986 H         1 <0>         0.0274
     63 H20         2.8852   -3.3113    5.6789 H         1 <0>         0.0476
     64 H21         2.5335   -3.0185    7.3913 H         1 <0>         0.0170
     65 H22         1.2173   -3.0301    6.2104 H         1 <0>         0.0477
     66 H23         7.2316   -2.6014    5.3127 H         1 <0>         0.0814
     67 H24         8.0500   -2.8661    3.7872 H         1 <0>         0.0685
     68 H25         0.3900    2.0675    0.6783 H         1 <0>         0.1016
     69 H26        -0.5969    3.5252    0.7212 H         1 <0>         0.0660
     70 H27        -0.7150    2.4492   -1.5148 H         1 <0>         0.0512
     71 H28        -2.2909    2.4892   -0.7497 H         1 <0>         0.0454
     72 H29         0.9469   -1.1516    4.5828 H         1 <0>         0.0575
     73 H30         2.0032    0.2464    4.6399 H         1 <0>         0.0743
     74 H31        -1.4416    0.7754    1.7834 H         1 <0>         0.0662
     75 H32        -2.4491    2.2294    1.8230 H         1 <0>         0.0622
     76 H33        -1.5587    0.5035   -3.0917 H         1 <0>         0.0321
     77 H34        -3.1279    0.5382   -2.2680 H         1 <0>         0.0204
     78 H35         2.8203   -2.5449    3.6159 H         1 <0>         0.0749
     79 H36         6.5115   -0.2411    4.2859 H         1 <0>         0.0719
     80 H37         1.7968   -0.7138    6.8816 H         1 <0>         0.0609
     81 H38        -2.0581    0.1260   -0.0837 H         1 <0>         0.1063
     82 H39         0.2039    2.8957    5.4704 H         1 <0>         0.4792
     83 H40        -1.0075    2.0807    6.4092 H         1 <0>         0.4819
     84 H41        -2.9358    0.8388    3.5987 H         1 <0>         0.4802
     85 H42        -2.8225    0.8924    5.3343 H         1 <0>         0.4826
     86 H43         0.5534    0.0962   -1.5282 H         1 <0>         0.3101
     87 H44         4.4137   -0.0309    3.6864 H         1 <0>         0.3087
     88 H45         0.0710    2.8422    3.0499 H         1 <0>         0.4846
     89 H46        12.5321    1.3777    5.5233 H         1 <0>         0.4194
     90 H47         2.7873   -5.4145    2.8873 H         1 <0>         0.4036
     91 H48        -1.3448   -1.6067   -2.6281 H         1 <0>         0.4114
     92 H49         8.0124   -1.1538    2.3984 H         1 <0>         0.3944
@<TRIPOS>BOND
     1    1    3 ar
     2    1    5 ar
     3    2    4 ar
     4    2    5 ar
     5    3    6 ar
     6    4    6 ar
     7    5   21 1
     8    6   40 1
     9    7   15 1
    10    7   34 am
    11    7   37 2
    12    8   27 1
    13    8   31 am
    14    8   38 2
    15    9   28 1
    16    9   35 am
    17    9   39 2
    18   10   32 1
    19   10   33 1
    20   10   36 1
    21   11   12 1
    22   11   16 1
    23   12   18 1
    24   13   15 1
    25   13   16 1
    26   14   17 1
    27   14   18 1
    28   15   31 1
    29   16   17 1
    30   17   31 1
    31   18   41 1
    32   19   29 1
    33   20   29 1
    34   21   28 1
    35   22   23 1
    36   22   25 1
    37   23   30 1
    38   24   27 1
    39   24   29 1
    40   25   36 1
    41   26   30 1
    42   26   42 1
    43   27   35 1
    44   28   43 1
    45   30   34 1
    46    1   44 1
    47    2   45 1
    48    3   46 1
    49    4   47 1
    50   11   48 1
    51   11   49 1
    52   12   50 1
    53   12   51 1
    54   13   52 1
    55   13   53 1
    56   14   54 1
    57   14   55 1
    58   15   56 1
    59   16   57 1
    60   17   58 1
    61   18   59 1
    62   19   60 1
    63   19   61 1
    64   19   62 1
    65   20   63 1
    66   20   64 1
    67   20   65 1
    68   21   66 1
    69   21   67 1
    70   22   68 1
    71   22   69 1
    72   23   70 1
    73   23   71 1
    74   24   72 1
    75   24   73 1
    76   25   74 1
    77   25   75 1
    78   26   76 1
    79   26   77 1
    80   27   78 1
    81   28   79 1
    82   29   80 1
    83   30   81 1
    84   32   82 1
    85   32   83 1
    86   33   84 1
    87   33   85 1
    88   34   86 1
    89   35   87 1
    90   36   88 1
    91   40   89 1
    92   41   90 1
    93   42   91 1
    94   43   92 1
@<TRIPOS>MOLECULE
1a2c_ligand_86
   92    94     0     0     0
SMALL
USER_CHARGES

mmff94s_NoEstat = 109.95
@<TRIPOS>ATOM
      1 C1         -8.4460   -3.1309   -1.9874 C.ar      1 <0>        -0.0708
      2 C2         -8.9583   -1.7012   -0.1084 C.ar      1 <0>        -0.0872
      3 C3         -9.7777   -3.5428   -2.0370 C.ar      1 <0>        -0.2241
      4 C4        -10.2900   -2.1132   -0.1580 C.ar      1 <0>        -0.1600
      5 C5         -8.0541   -2.2156   -1.0238 C.ar      1 <0>        -0.1356
      6 C6        -10.6997   -3.0340   -1.1223 C.ar      1 <0>         0.1290
      7 C7         -0.0512   -1.0561    0.2993 C.2       1 <0>         0.6664
      8 C8         -1.8469   -3.0457    2.1630 C.2       1 <0>         0.6651
      9 C9         -4.4743   -1.9575    0.3333 C.2       1 <0>         0.6454
     10 C10        -3.1144    0.0750   -3.6772 C.cat     1 <0>         0.6349
     11 C11         2.5186   -3.1911    0.6823 C.3       1 <0>        -0.0642
     12 C12         2.4580   -4.6414    0.2376 C.3       1 <0>        -0.0747
     13 C13         1.4874   -1.4827    2.2418 C.3       1 <0>        -0.0873
     14 C14         0.4946   -5.0934    1.7133 C.3       1 <0>        -0.1371
     15 C15         0.0412   -1.4176    1.7503 C.3       1 <0>         0.0360
     16 C16         1.8865   -2.9529    2.0632 C.3       1 <0>        -0.0720
     17 C17         0.5665   -3.7001    2.3454 C.3       1 <0>         0.1201
     18 C18         1.0248   -5.1525    0.2868 C.3       1 <0>         0.1453
     19 C19        -5.3726   -0.5418    3.1302 C.3       1 <0>        -0.0968
     20 C20        -3.4397    1.0389    2.9738 C.3       1 <0>        -0.0986
     21 C21        -6.6126   -1.7691   -0.9705 C.3       1 <0>        -0.0191
     22 C22        -0.5396    2.6263   -2.8210 C.3       1 <0>        -0.1009
     23 C23        -0.4337    2.0012   -1.4250 C.3       1 <0>        -0.0942
     24 C24        -2.9973   -1.3585    3.5851 C.3       1 <0>        -0.0988
     25 C25        -1.1768    1.6547   -3.8119 C.3       1 <0>         0.1966
     26 C26         1.9058    0.9774   -1.7696 C.3       1 <0>         0.1128
     27 C27        -2.7865   -1.8644    2.1628 C.3       1 <0>         0.0786
     28 C28        -5.7663   -2.6636   -0.0588 C.3       1 <0>         0.0744
     29 C29        -3.9969   -0.1898    3.6979 C.3       1 <0>        -0.0678
     30 C30         0.4555    0.7445   -1.3388 C.3       1 <0>         0.1065
     31 N1         -0.4979   -2.7598    1.9615 N.am      1 <0>        -0.4315
     32 N2         -4.3999   -0.2182   -3.2340 N.pl3     1 <0>        -0.8671
     33 N3         -2.4246   -0.8699   -4.4292 N.pl3     1 <0>        -0.8581
     34 N4          0.4455    0.1980   -0.0008 N.am      1 <0>        -0.5687
     35 N5         -3.9799   -2.3853    1.5634 N.am      1 <0>        -0.5746
     36 N6         -2.5084    1.3070   -3.3760 N.pl3     1 <0>        -0.7533
     37 O1         -0.5362   -1.8555   -0.4928 O.2       1 <0>        -0.5843
     38 O2         -2.2998   -4.1783    2.3409 O.2       1 <0>        -0.6812
     39 O3         -3.9527   -1.0962   -0.3713 O.2       1 <0>        -0.5788
     40 O4        -11.9996   -3.4348   -1.1718 O.3       1 <0>        -0.4938
     41 O5          0.9879   -6.5072   -0.1510 O.3       1 <0>        -0.6030
     42 O6          2.6391   -0.2366   -1.6731 O.3       1 <0>        -0.5860
     43 O7         -5.4285   -3.8509   -0.7614 O.3       1 <0>        -0.6021
     44 H1         -7.7350   -3.5329   -2.7040 H         1 <0>         0.1412
     45 H2         -8.6481   -0.9831    0.6463 H         1 <0>         0.1451
     46 H3        -10.0907   -4.2602   -2.7905 H         1 <0>         0.1336
     47 H4        -11.0039   -1.7124    0.5568 H         1 <0>         0.1567
     48 H5          3.5627   -2.8549    0.7003 H         1 <0>         0.0649
     49 H6          2.0259   -2.5829   -0.0837 H         1 <0>         0.0476
     50 H7          2.8567   -4.7427   -0.7790 H         1 <0>         0.0641
     51 H8          3.1032   -5.2618    0.8729 H         1 <0>         0.0484
     52 H9          2.1569   -0.7868    1.7257 H         1 <0>         0.0596
     53 H10         1.5124   -1.2395    3.3116 H         1 <0>         0.0757
     54 H11         1.0921   -5.7802    2.3299 H         1 <0>         0.0782
     55 H12        -0.5175   -5.5090    1.7393 H         1 <0>         0.0812
     56 H13        -0.5378   -0.6778    2.3126 H         1 <0>         0.0731
     57 H14         2.6304   -3.2407    2.8169 H         1 <0>         0.0511
     58 H15         0.4523   -3.8218    3.4319 H         1 <0>         0.0753
     59 H16         0.3841   -4.5700   -0.3844 H         1 <0>         0.0427
     60 H17        -6.0375    0.3284    3.1563 H         1 <0>         0.0450
     61 H18        -5.8542   -1.3328    3.7128 H         1 <0>         0.0406
     62 H19        -5.2988   -0.8789    2.0908 H         1 <0>         0.0274
     63 H20        -3.3028    0.8425    1.9049 H         1 <0>         0.0476
     64 H21        -4.1178    1.8926    3.0773 H         1 <0>         0.0170
     65 H22        -2.4708    1.3315    3.3922 H         1 <0>         0.0477
     66 H23        -6.5706   -0.7287   -0.6213 H         1 <0>         0.0814
     67 H24        -6.2170   -1.7572   -1.9939 H         1 <0>         0.0685
     68 H25        -1.1414    3.5417   -2.7803 H         1 <0>         0.1016
     69 H26         0.4540    2.9154   -3.1840 H         1 <0>         0.0660
     70 H27        -1.4419    1.7433   -1.0734 H         1 <0>         0.0512
     71 H28        -0.0553    2.7561   -0.7237 H         1 <0>         0.0454
     72 H29        -2.0302   -1.0518    4.0061 H         1 <0>         0.0575
     73 H30        -3.3514   -2.1846    4.2177 H         1 <0>         0.0743
     74 H31        -0.5754    0.7428   -3.8900 H         1 <0>         0.0662
     75 H32        -1.2333    2.1046   -4.8084 H         1 <0>         0.0622
     76 H33         2.4001    1.7344   -1.1517 H         1 <0>         0.0321
     77 H34         1.9468    1.3120   -2.8125 H         1 <0>         0.0204
     78 H35        -2.3647   -1.1082    1.5019 H         1 <0>         0.0749
     79 H36        -6.3120   -2.9453    0.8496 H         1 <0>         0.0719
     80 H37        -4.1195    0.0762    4.7551 H         1 <0>         0.0609
     81 H38         0.0149    0.0012   -2.0158 H         1 <0>         0.1063
     82 H39        -4.9408    0.4406   -2.6803 H         1 <0>         0.4792
     83 H40        -4.8370   -1.1106   -3.4523 H         1 <0>         0.4819
     84 H41        -1.4833   -0.6883   -4.7690 H         1 <0>         0.4802
     85 H42        -2.8440   -1.7674   -4.6600 H         1 <0>         0.4826
     86 H43         0.8216    0.7626    0.7549 H         1 <0>         0.3101
     87 H44        -4.4957   -3.1095    2.0656 H         1 <0>         0.3087
     88 H45        -3.0625    1.9678   -2.8179 H         1 <0>         0.4846
     89 H46       -12.0566   -4.3542   -1.4771 H         1 <0>         0.4194
     90 H47         1.8515   -6.8926    0.0654 H         1 <0>         0.4036
     91 H48         2.8853   -0.3414   -0.7399 H         1 <0>         0.4114
     92 H49        -6.0237   -3.9035   -1.5269 H         1 <0>         0.3944
@<TRIPOS>BOND
     1    1    3 ar
     2    1    5 ar
     3    2    4 ar
     4    2    5 ar
     5    3    6 ar
     6    4    6 ar
     7    5   21 1
     8    6   40 1
     9    7   15 1
    10    7   34 am
    11    7   37 2
    12    8   27 1
    13    8   31 am
    14    8   38 2
    15    9   28 1
    16    9   35 am
    17    9   39 2
    18   10   32 1
    19   10   33 1
    20   10   36 1
    21   11   12 1
    22   11   16 1
    23   12   18 1
    24   13   15 1
    25   13   16 1
    26   14   17 1
    27   14   18 1
    28   15   31 1
    29   16   17 1
    30   17   31 1
    31   18   41 1
    32   19   29 1
    33   20   29 1
    34   21   28 1
    35   22   23 1
    36   22   25 1
    37   23   30 1
    38   24   27 1
    39   24   29 1
    40   25   36 1
    41   26   30 1
    42   26   42 1
    43   27   35 1
    44   28   43 1
    45   30   34 1
    46    1   44 1
    47    2   45 1
    48    3   46 1
    49    4   47 1
    50   11   48 1
    51   11   49 1
    52   12   50 1
    53   12   51 1
    54   13   52 1
    55   13   53 1
    56   14   54 1
    57   14   55 1
    58   15   56 1
    59   16   57 1
    60   17   58 1
    61   18   59 1
    62   19   60 1
    63   19   61 1
    64   19   62 1
    65   20   63 1
    66   20   64 1
    67   20   65 1
    68   21   66 1
    69   21   67 1
    70   22   68 1
    71   22   69 1
    72   23   70 1
    73   23   71 1
    74   24   72 1
    75   24   73 1
    76   25   74 1
    77   25   75 1
    78   26   76 1
    79   26   77 1
    80   27   78 1
    81   28   79 1
    82   29   80 1
    83   30   81 1
    84   32   82 1
    85   32   83 1
    86   33   84 1
    87   33   85 1
    88   34   86 1
    89   35   87 1
    90   36   88 1
    91   40   89 1
    92   41   90 1
    93   42   91 1
    94   43   92 1
@<TRIPOS>MOLECULE
1a2c_ligand_87
   92    94     0     0     0
SMALL
USER_CHARGES

mmff94s_NoEstat = 110.03
@<TRIPOS>ATOM
      1 C1          9.9563   -1.0986    4.0997 C.ar      1 <0>        -0.0708
      2 C2          8.8528   -0.7412    6.2190 C.ar      1 <0>        -0.0872
      3 C3         11.0523   -0.3601    4.5459 C.ar      1 <0>        -0.2241
      4 C4          9.9488   -0.0027    6.6652 C.ar      1 <0>        -0.1600
      5 C5          8.8713   -1.2793    4.9423 C.ar      1 <0>        -0.1356
      6 C6         11.0485    0.1878    5.8286 C.ar      1 <0>         0.1290
      7 C7          0.1755   -1.0766    0.1327 C.2       1 <0>         0.6664
      8 C8          2.3785   -0.9757    2.2764 C.2       1 <0>         0.6651
      9 C9          5.2968   -1.9145    3.7000 C.2       1 <0>         0.6454
     10 C10        -2.2164    5.8593    0.9108 C.cat     1 <0>         0.6349
     11 C11         2.4521   -5.3069   -0.2561 C.3       1 <0>        -0.0642
     12 C12         1.2413   -5.9691    0.3982 C.3       1 <0>        -0.0747
     13 C13         1.5734   -2.9393   -0.7647 C.3       1 <0>        -0.0873
     14 C14         1.0938   -4.1277    2.1072 C.3       1 <0>        -0.1371
     15 C15         1.5650   -1.6216    0.0133 C.3       1 <0>         0.0360
     16 C16         2.5597   -3.8106    0.0203 C.3       1 <0>        -0.0720
     17 C17         2.2934   -3.4012    1.4755 C.3       1 <0>         0.1201
     18 C18         1.1411   -5.6363    1.8853 C.3       1 <0>         0.1453
     19 C19         3.8896   -0.8379    6.4377 C.3       1 <0>        -0.0968
     20 C20         2.2599   -2.7349    6.3694 C.3       1 <0>        -0.0986
     21 C21         7.6850   -2.0794    4.4595 C.3       1 <0>        -0.0191
     22 C22        -0.6430    2.4326    0.6399 C.3       1 <0>        -0.1009
     23 C23        -1.2979    2.0260   -0.6854 C.3       1 <0>        -0.0942
     24 C24         1.9925   -0.8489    4.7298 C.3       1 <0>        -0.0988
     25 C25        -0.5996    3.9518    0.7888 C.3       1 <0>         0.1966
     26 C26        -2.1127    0.1273   -2.2253 C.3       1 <0>         0.1128
     27 C27         2.8496   -1.4560    3.6253 C.3       1 <0>         0.0786
     28 C28         6.6400   -1.1984    3.7670 C.3       1 <0>         0.0744
     29 C29         2.4383   -1.2292    6.1562 C.3       1 <0>        -0.0678
     30 C30        -1.4370    0.5062   -0.9051 C.3       1 <0>         0.1065
     31 N1          2.0322   -1.9586    1.3590 N.am      1 <0>        -0.4315
     32 N2         -3.5242    6.3323    0.8841 N.pl3     1 <0>        -0.8671
     33 N3         -1.1723    6.7622    1.0802 N.pl3     1 <0>        -0.8581
     34 N4         -0.1481   -0.1440   -0.8342 N.am      1 <0>        -0.5687
     35 N5          4.2184   -1.0331    3.6724 N.am      1 <0>        -0.5746
     36 N6         -1.9396    4.4885    0.7697 N.pl3     1 <0>        -0.7533
     37 O1         -0.5534   -1.4727    1.0347 O.2       1 <0>        -0.5843
     38 O2          2.3230    0.2335    2.0409 O.2       1 <0>        -0.6812
     39 O3          5.2019   -3.1398    3.6875 O.2       1 <0>        -0.5788
     40 O4         12.1187    0.9071    6.2646 O.3       1 <0>        -0.4938
     41 O5          2.2611   -6.1715    2.5852 O.3       1 <0>        -0.6030
     42 O6         -2.2112   -1.2870   -2.3289 O.3       1 <0>        -0.5860
     43 O7          7.0680   -0.9312    2.4393 O.3       1 <0>        -0.6021
     44 H1          9.9683   -1.5215    3.0988 H         1 <0>         0.1412
     45 H2          8.0003   -0.8848    6.8778 H         1 <0>         0.1451
     46 H3         11.9060   -0.2154    3.8896 H         1 <0>         0.1336
     47 H4          9.9403    0.4209    7.6660 H         1 <0>         0.1567
     48 H5          3.3605   -5.7937    0.1218 H         1 <0>         0.0649
     49 H6          2.4319   -5.4897   -1.3370 H         1 <0>         0.0476
     50 H7          0.3241   -5.6545   -0.1129 H         1 <0>         0.0641
     51 H8          1.3294   -7.0545    0.2691 H         1 <0>         0.0484
     52 H9          0.5754   -3.3919   -0.8000 H         1 <0>         0.0596
     53 H10         1.8977   -2.7914   -1.8003 H         1 <0>         0.0757
     54 H11         1.0807   -3.9085    3.1823 H         1 <0>         0.0782
     55 H12         0.1523   -3.7376    1.7002 H         1 <0>         0.0812
     56 H13         2.2202   -0.8626   -0.4249 H         1 <0>         0.0731
     57 H14         3.5726   -3.4842   -0.2571 H         1 <0>         0.0511
     58 H15         3.1875   -3.5701    2.0864 H         1 <0>         0.0753
     59 H16         0.2435   -6.1003    2.3075 H         1 <0>         0.0427
     60 H17         4.2001   -1.1859    7.4289 H         1 <0>         0.0450
     61 H18         4.0203    0.2482    6.4220 H         1 <0>         0.0406
     62 H19         4.5693   -1.2752    5.6986 H         1 <0>         0.0274
     63 H20         2.8852   -3.3113    5.6789 H         1 <0>         0.0476
     64 H21         2.5335   -3.0185    7.3913 H         1 <0>         0.0170
     65 H22         1.2173   -3.0301    6.2104 H         1 <0>         0.0477
     66 H23         7.2316   -2.6014    5.3127 H         1 <0>         0.0814
     67 H24         8.0500   -2.8661    3.7872 H         1 <0>         0.0685
     68 H25        -1.1995    2.0063    1.4826 H         1 <0>         0.1016
     69 H26         0.3766    2.0329    0.6979 H         1 <0>         0.0660
     70 H27        -0.7150    2.4492   -1.5148 H         1 <0>         0.0512
     71 H28        -2.2909    2.4892   -0.7497 H         1 <0>         0.0454
     72 H29         0.9469   -1.1516    4.5828 H         1 <0>         0.0575
     73 H30         2.0032    0.2464    4.6399 H         1 <0>         0.0743
     74 H31        -0.0230    4.3974   -0.0287 H         1 <0>         0.0662
     75 H32        -0.1161    4.2315    1.7305 H         1 <0>         0.0622
     76 H33        -1.5587    0.5035   -3.0917 H         1 <0>         0.0321
     77 H34        -3.1279    0.5382   -2.2680 H         1 <0>         0.0204
     78 H35         2.8203   -2.5449    3.6159 H         1 <0>         0.0749
     79 H36         6.5115   -0.2411    4.2859 H         1 <0>         0.0719
     80 H37         1.7968   -0.7138    6.8816 H         1 <0>         0.0609
     81 H38        -2.0581    0.1260   -0.0837 H         1 <0>         0.1063
     82 H39        -4.3184    5.7100    0.7607 H         1 <0>         0.4792
     83 H40        -3.7230    7.3249    0.9858 H         1 <0>         0.4819
     84 H41        -0.2044    6.4505    1.1043 H         1 <0>         0.4802
     85 H42        -1.3494    7.7583    1.1855 H         1 <0>         0.4826
     86 H43         0.5534    0.0962   -1.5282 H         1 <0>         0.3101
     87 H44         4.4137   -0.0309    3.6864 H         1 <0>         0.3087
     88 H45        -2.7477    3.8663    0.6475 H         1 <0>         0.4846
     89 H46        12.5321    1.3777    5.5233 H         1 <0>         0.4194
     90 H47         2.7873   -5.4145    2.8873 H         1 <0>         0.4036
     91 H48        -1.3448   -1.6067   -2.6281 H         1 <0>         0.4114
     92 H49         8.0124   -1.1538    2.3984 H         1 <0>         0.3944
@<TRIPOS>BOND
     1    1    3 ar
     2    1    5 ar
     3    2    4 ar
     4    2    5 ar
     5    3    6 ar
     6    4    6 ar
     7    5   21 1
     8    6   40 1
     9    7   15 1
    10    7   34 am
    11    7   37 2
    12    8   27 1
    13    8   31 am
    14    8   38 2
    15    9   28 1
    16    9   35 am
    17    9   39 2
    18   10   32 1
    19   10   33 1
    20   10   36 1
    21   11   12 1
    22   11   16 1
    23   12   18 1
    24   13   15 1
    25   13   16 1
    26   14   17 1
    27   14   18 1
    28   15   31 1
    29   16   17 1
    30   17   31 1
    31   18   41 1
    32   19   29 1
    33   20   29 1
    34   21   28 1
    35   22   23 1
    36   22   25 1
    37   23   30 1
    38   24   27 1
    39   24   29 1
    40   25   36 1
    41   26   30 1
    42   26   42 1
    43   27   35 1
    44   28   43 1
    45   30   34 1
    46    1   44 1
    47    2   45 1
    48    3   46 1
    49    4   47 1
    50   11   48 1
    51   11   49 1
    52   12   50 1
    53   12   51 1
    54   13   52 1
    55   13   53 1
    56   14   54 1
    57   14   55 1
    58   15   56 1
    59   16   57 1
    60   17   58 1
    61   18   59 1
    62   19   60 1
    63   19   61 1
    64   19   62 1
    65   20   63 1
    66   20   64 1
    67   20   65 1
    68   21   66 1
    69   21   67 1
    70   22   68 1
    71   22   69 1
    72   23   70 1
    73   23   71 1
    74   24   72 1
    75   24   73 1
    76   25   74 1
    77   25   75 1
    78   26   76 1
    79   26   77 1
    80   27   78 1
    81   28   79 1
    82   29   80 1
    83   30   81 1
    84   32   82 1
    85   32   83 1
    86   33   84 1
    87   33   85 1
    88   34   86 1
    89   35   87 1
    90   36   88 1
    91   40   89 1
    92   41   90 1
    93   42   91 1
    94   43   92 1
@<TRIPOS>MOLECULE
1a2c_ligand_88
   92    94     0     0     0
SMALL
USER_CHARGES

mmff94s_NoEstat = 110.08
@<TRIPOS>ATOM
      1 C1          9.8229   -0.5325    2.5789 C.ar      1 <0>        -0.0708
      2 C2          9.6061   -2.2416    4.2728 C.ar      1 <0>        -0.0872
      3 C3         11.0859   -0.2043    3.0717 C.ar      1 <0>        -0.2241
      4 C4         10.8691   -1.9134    4.7656 C.ar      1 <0>        -0.1600
      5 C5          9.1000   -1.5468    3.1860 C.ar      1 <0>        -0.1356
      6 C6         11.6090   -0.8947    4.1650 C.ar      1 <0>         0.1290
      7 C7          0.1755   -1.0766    0.1327 C.2       1 <0>         0.6664
      8 C8          2.3785   -0.9757    2.2764 C.2       1 <0>         0.6651
      9 C9          5.2695   -1.7615    3.1198 C.2       1 <0>         0.6454
     10 C10         0.0566    5.9382   -0.9679 C.cat     1 <0>         0.6349
     11 C11         2.4521   -5.3069   -0.2561 C.3       1 <0>        -0.0642
     12 C12         1.2413   -5.9691    0.3982 C.3       1 <0>        -0.0747
     13 C13         1.5734   -2.9393   -0.7647 C.3       1 <0>        -0.0873
     14 C14         1.0938   -4.1277    2.1072 C.3       1 <0>        -0.1371
     15 C15         1.5650   -1.6216    0.0133 C.3       1 <0>         0.0360
     16 C16         2.5597   -3.8106    0.0203 C.3       1 <0>        -0.0720
     17 C17         2.2934   -3.4012    1.4755 C.3       1 <0>         0.1201
     18 C18         1.1411   -5.6363    1.8853 C.3       1 <0>         0.1453
     19 C19         3.8896   -0.8379    6.4377 C.3       1 <0>        -0.0968
     20 C20         2.2599   -2.7349    6.3694 C.3       1 <0>        -0.0986
     21 C21         7.7330   -1.9025    2.6521 C.3       1 <0>        -0.0191
     22 C22        -0.8392    2.2664   -0.8852 C.3       1 <0>        -0.1009
     23 C23        -1.6754    1.2905   -1.7214 C.3       1 <0>        -0.0942
     24 C24         1.9925   -0.8489    4.7298 C.3       1 <0>        -0.0988
     25 C25        -0.9003    3.6784   -1.4634 C.3       1 <0>         0.1966
     26 C26        -2.5783   -1.1036   -2.0263 C.3       1 <0>         0.1128
     27 C27         2.8496   -1.4560    3.6253 C.3       1 <0>         0.0786
     28 C28         6.6222   -1.0920    3.3282 C.3       1 <0>         0.0744
     29 C29         2.4383   -1.2292    6.1562 C.3       1 <0>        -0.0678
     30 C30        -1.7203   -0.1547   -1.1858 C.3       1 <0>         0.1065
     31 N1          2.0322   -1.9586    1.3590 N.am      1 <0>        -0.4315
     32 N2          0.8383    6.7654   -0.1682 N.pl3     1 <0>        -0.8671
     33 N3         -0.5783    6.4758   -2.0824 N.pl3     1 <0>        -0.8581
     34 N4         -0.3878   -0.7030   -1.0725 N.am      1 <0>        -0.5687
     35 N5          4.2184   -1.0331    3.6724 N.am      1 <0>        -0.5746
     36 N6         -0.0981    4.5744   -0.6649 N.pl3     1 <0>        -0.7533
     37 O1         -0.3509   -1.0007    1.2367 O.2       1 <0>        -0.5843
     38 O2          2.3230    0.2335    2.0409 O.2       1 <0>        -0.6812
     39 O3          5.1476   -2.8360    2.5359 O.2       1 <0>        -0.5788
     40 O4         12.8421   -0.5755    4.6448 O.3       1 <0>        -0.4938
     41 O5          2.2611   -6.1715    2.5852 O.3       1 <0>        -0.6030
     42 O6         -2.5724   -2.4015   -1.4465 O.3       1 <0>        -0.5860
     43 O7          6.5730    0.2013    2.7431 O.3       1 <0>        -0.6021
     44 H1          9.4236    0.0110    1.7269 H         1 <0>         0.1412
     45 H2          9.0369   -3.0369    4.7469 H         1 <0>         0.1451
     46 H3         11.6573    0.5899    2.5995 H         1 <0>         0.1336
     47 H4         11.2717   -2.4556    5.6171 H         1 <0>         0.1567
     48 H5          3.3605   -5.7937    0.1218 H         1 <0>         0.0649
     49 H6          2.4319   -5.4897   -1.3370 H         1 <0>         0.0476
     50 H7          0.3241   -5.6545   -0.1129 H         1 <0>         0.0641
     51 H8          1.3294   -7.0545    0.2691 H         1 <0>         0.0484
     52 H9          0.5754   -3.3919   -0.8000 H         1 <0>         0.0596
     53 H10         1.8977   -2.7914   -1.8003 H         1 <0>         0.0757
     54 H11         1.0807   -3.9085    3.1823 H         1 <0>         0.0782
     55 H12         0.1523   -3.7376    1.7002 H         1 <0>         0.0812
     56 H13         2.2202   -0.8626   -0.4249 H         1 <0>         0.0731
     57 H14         3.5726   -3.4842   -0.2571 H         1 <0>         0.0511
     58 H15         3.1875   -3.5701    2.0864 H         1 <0>         0.0753
     59 H16         0.2435   -6.1003    2.3075 H         1 <0>         0.0427
     60 H17         4.2001   -1.1859    7.4289 H         1 <0>         0.0450
     61 H18         4.0203    0.2482    6.4220 H         1 <0>         0.0406
     62 H19         4.5693   -1.2752    5.6986 H         1 <0>         0.0274
     63 H20         2.8852   -3.3113    5.6789 H         1 <0>         0.0476
     64 H21         2.5335   -3.0185    7.3913 H         1 <0>         0.0170
     65 H22         1.2173   -3.0301    6.2104 H         1 <0>         0.0477
     66 H23         7.5576   -2.9767    2.7987 H         1 <0>         0.0814
     67 H24         7.7350   -1.7453    1.5662 H         1 <0>         0.0685
     68 H25        -1.2041    2.2870    0.1483 H         1 <0>         0.1016
     69 H26         0.2054    1.9349   -0.8467 H         1 <0>         0.0660
     70 H27        -1.2820    1.2733   -2.7469 H         1 <0>         0.0512
     71 H28        -2.7004    1.6751   -1.7996 H         1 <0>         0.0454
     72 H29         0.9469   -1.1516    4.5828 H         1 <0>         0.0575
     73 H30         2.0032    0.2464    4.6399 H         1 <0>         0.0743
     74 H31        -1.9343    4.0389   -1.4775 H         1 <0>         0.0662
     75 H32        -0.5286    3.6880   -2.4933 H         1 <0>         0.0622
     76 H33        -2.2157   -1.1795   -3.0567 H         1 <0>         0.0321
     77 H34        -3.6169   -0.7550   -2.0576 H         1 <0>         0.0204
     78 H35         2.8203   -2.5449    3.6159 H         1 <0>         0.0749
     79 H36         6.8043   -0.9763    4.4032 H         1 <0>         0.0719
     80 H37         1.7968   -0.7138    6.8816 H         1 <0>         0.0609
     81 H38        -2.1562   -0.1031   -0.1797 H         1 <0>         0.1063
     82 H39         1.3192    6.4171    0.6569 H         1 <0>         0.4792
     83 H40         0.9489    7.7525   -0.3884 H         1 <0>         0.4819
     84 H41        -1.1572    5.8995   -2.6884 H         1 <0>         0.4802
     85 H42        -0.4794    7.4595   -2.3213 H         1 <0>         0.4826
     86 H43         0.1607   -0.8193   -1.9192 H         1 <0>         0.3101
     87 H44         4.4349   -0.1495    4.1364 H         1 <0>         0.3087
     88 H45         0.3928    4.2301    0.1692 H         1 <0>         0.4846
     89 H46        13.0145    0.3720    4.5255 H         1 <0>         0.4194
     90 H47         2.7873   -5.4145    2.8873 H         1 <0>         0.4036
     91 H48        -1.7464   -2.8287   -1.7250 H         1 <0>         0.4114
     92 H49         7.4057    0.3222    2.2582 H         1 <0>         0.3944
@<TRIPOS>BOND
     1    1    3 ar
     2    1    5 ar
     3    2    4 ar
     4    2    5 ar
     5    3    6 ar
     6    4    6 ar
     7    5   21 1
     8    6   40 1
     9    7   15 1
    10    7   34 am
    11    7   37 2
    12    8   27 1
    13    8   31 am
    14    8   38 2
    15    9   28 1
    16    9   35 am
    17    9   39 2
    18   10   32 1
    19   10   33 1
    20   10   36 1
    21   11   12 1
    22   11   16 1
    23   12   18 1
    24   13   15 1
    25   13   16 1
    26   14   17 1
    27   14   18 1
    28   15   31 1
    29   16   17 1
    30   17   31 1
    31   18   41 1
    32   19   29 1
    33   20   29 1
    34   21   28 1
    35   22   23 1
    36   22   25 1
    37   23   30 1
    38   24   27 1
    39   24   29 1
    40   25   36 1
    41   26   30 1
    42   26   42 1
    43   27   35 1
    44   28   43 1
    45   30   34 1
    46    1   44 1
    47    2   45 1
    48    3   46 1
    49    4   47 1
    50   11   48 1
    51   11   49 1
    52   12   50 1
    53   12   51 1
    54   13   52 1
    55   13   53 1
    56   14   54 1
    57   14   55 1
    58   15   56 1
    59   16   57 1
    60   17   58 1
    61   18   59 1
    62   19   60 1
    63   19   61 1
    64   19   62 1
    65   20   63 1
    66   20   64 1
    67   20   65 1
    68   21   66 1
    69   21   67 1
    70   22   68 1
    71   22   69 1
    72   23   70 1
    73   23   71 1
    74   24   72 1
    75   24   73 1
    76   25   74 1
    77   25   75 1
    78   26   76 1
    79   26   77 1
    80   27   78 1
    81   28   79 1
    82   29   80 1
    83   30   81 1
    84   32   82 1
    85   32   83 1
    86   33   84 1
    87   33   85 1
    88   34   86 1
    89   35   87 1
    90   36   88 1
    91   40   89 1
    92   41   90 1
    93   42   91 1
    94   43   92 1
@<TRIPOS>MOLECULE
1a2c_ligand_89
   92    94     0     0     0
SMALL
USER_CHARGES

mmff94s_NoEstat = 110.08
@<TRIPOS>ATOM
      1 C1         -7.0405   -7.0460   -1.4067 C.ar      1 <0>        -0.0708
      2 C2         -7.3077   -5.0476   -2.7379 C.ar      1 <0>        -0.0872
      3 C3         -8.3090   -7.4753   -1.7967 C.ar      1 <0>        -0.2241
      4 C4         -8.5762   -5.4770   -3.1280 C.ar      1 <0>        -0.1600
      5 C5         -6.5568   -5.8379   -1.8825 C.ar      1 <0>        -0.1356
      6 C6         -9.0769   -6.6909   -2.6574 C.ar      1 <0>         0.1290
      7 C7         -0.0512   -1.0561    0.2993 C.2       1 <0>         0.6664
      8 C8         -1.8469   -3.0457    2.1630 C.2       1 <0>         0.6651
      9 C9         -3.9484   -3.7154   -0.0348 C.2       1 <0>         0.6454
     10 C10         0.1087    6.2839    0.0320 C.cat     1 <0>         0.6349
     11 C11         2.5186   -3.1911    0.6823 C.3       1 <0>        -0.0642
     12 C12         2.4580   -4.6414    0.2376 C.3       1 <0>        -0.0747
     13 C13         1.4874   -1.4827    2.2418 C.3       1 <0>        -0.0873
     14 C14         0.4946   -5.0934    1.7133 C.3       1 <0>        -0.1371
     15 C15         0.0412   -1.4176    1.7503 C.3       1 <0>         0.0360
     16 C16         1.8865   -2.9529    2.0632 C.3       1 <0>        -0.0720
     17 C17         0.5665   -3.7001    2.3454 C.3       1 <0>         0.1201
     18 C18         1.0248   -5.1525    0.2868 C.3       1 <0>         0.1453
     19 C19        -5.5746   -0.7475    1.4860 C.3       1 <0>        -0.0968
     20 C20        -3.7112    0.7464    0.7408 C.3       1 <0>        -0.0986
     21 C21        -5.1833   -5.3734   -1.4608 C.3       1 <0>        -0.0191
     22 C22        -1.0374    2.7415   -0.6235 C.3       1 <0>        -0.1009
     23 C23         0.2513    2.2726   -1.3090 C.3       1 <0>        -0.0942
     24 C24        -3.2372   -1.0062    2.4788 C.3       1 <0>        -0.0988
     25 C25        -1.1758    4.2607   -0.6924 C.3       1 <0>         0.1966
     26 C26         1.7383    0.3016   -2.0469 C.3       1 <0>         0.1128
     27 C27        -2.8325   -2.1090    1.5076 C.3       1 <0>         0.0786
     28 C28        -5.2285   -4.5282   -0.1835 C.3       1 <0>         0.0744
     29 C29        -4.2955   -0.0321    1.9228 C.3       1 <0>        -0.0678
     30 C30         0.4555    0.7445   -1.3388 C.3       1 <0>         0.1065
     31 N1         -0.4979   -2.7598    1.9615 N.am      1 <0>        -0.4315
     32 N2          1.2089    6.8461    0.6711 N.pl3     1 <0>        -0.8671
     33 N3         -0.8437    7.1205   -0.5399 N.pl3     1 <0>        -0.8581
     34 N4          0.4455    0.1980   -0.0008 N.am      1 <0>        -0.5687
     35 N5         -3.9193   -2.9688    1.1410 N.am      1 <0>        -0.5746
     36 N6         -0.0506    4.8893   -0.0421 N.pl3     1 <0>        -0.7533
     37 O1         -0.5362   -1.8555   -0.4928 O.2       1 <0>        -0.5843
     38 O2         -2.2659   -3.9924    2.8322 O.2       1 <0>        -0.6812
     39 O3         -3.0587   -3.7239   -0.8825 O.2       1 <0>        -0.5788
     40 O4        -10.3141   -7.1107   -3.0393 O.3       1 <0>        -0.4938
     41 O5          0.9879   -6.5072   -0.1510 O.3       1 <0>        -0.6030
     42 O6          2.8703    0.8436   -1.3793 O.3       1 <0>        -0.5860
     43 O7         -5.3393   -5.3924    0.9382 O.3       1 <0>        -0.6021
     44 H1         -6.4498   -7.6638   -0.7358 H         1 <0>         0.1412
     45 H2         -6.9255   -4.1005   -3.1098 H         1 <0>         0.1451
     46 H3         -8.6934   -8.4218   -1.4269 H         1 <0>         0.1336
     47 H4         -9.1693   -4.8618   -3.7995 H         1 <0>         0.1567
     48 H5          3.5627   -2.8549    0.7003 H         1 <0>         0.0649
     49 H6          2.0259   -2.5829   -0.0837 H         1 <0>         0.0476
     50 H7          2.8567   -4.7427   -0.7790 H         1 <0>         0.0641
     51 H8          3.1032   -5.2618    0.8729 H         1 <0>         0.0484
     52 H9          2.1569   -0.7868    1.7257 H         1 <0>         0.0596
     53 H10         1.5124   -1.2395    3.3116 H         1 <0>         0.0757
     54 H11         1.0921   -5.7802    2.3299 H         1 <0>         0.0782
     55 H12        -0.5175   -5.5090    1.7393 H         1 <0>         0.0812
     56 H13        -0.5378   -0.6778    2.3126 H         1 <0>         0.0731
     57 H14         2.6304   -3.2407    2.8169 H         1 <0>         0.0511
     58 H15         0.4523   -3.8218    3.4319 H         1 <0>         0.0753
     59 H16         0.3841   -4.5700   -0.3844 H         1 <0>         0.0427
     60 H17        -6.2768   -0.0422    1.0282 H         1 <0>         0.0450
     61 H18        -6.0867   -1.2049    2.3377 H         1 <0>         0.0406
     62 H19        -5.3599   -1.5330    0.7535 H         1 <0>         0.0274
     63 H20        -3.4369    0.0757   -0.0807 H         1 <0>         0.0476
     64 H21        -4.4352    1.4732    0.3573 H         1 <0>         0.0170
     65 H22        -2.8146    1.2981    1.0427 H         1 <0>         0.0477
     66 H23        -4.7317   -4.7959   -2.2785 H         1 <0>         0.0814
     67 H24        -4.5452   -6.2565   -1.3306 H         1 <0>         0.0685
     68 H25        -1.9092    2.2808   -1.1025 H         1 <0>         0.1016
     69 H26        -1.0467    2.4234    0.4259 H         1 <0>         0.0660
     70 H27         1.1110    2.7323   -0.8028 H         1 <0>         0.0512
     71 H28         0.2685    2.6560   -2.3373 H         1 <0>         0.0454
     72 H29        -2.3434   -0.4411    2.7760 H         1 <0>         0.0575
     73 H30        -3.6273   -1.4576    3.4018 H         1 <0>         0.0743
     74 H31        -2.0997    4.5809   -0.1994 H         1 <0>         0.0662
     75 H32        -1.2190    4.5954   -1.7340 H         1 <0>         0.0622
     76 H33         1.7614    0.6251   -3.0928 H         1 <0>         0.0321
     77 H34         1.8289   -0.7905   -2.0281 H         1 <0>         0.0204
     78 H35        -2.3687   -1.7253    0.5998 H         1 <0>         0.0749
     79 H36        -6.0886   -3.8483   -0.1798 H         1 <0>         0.0719
     80 H37        -4.5575    0.6951    2.7011 H         1 <0>         0.0609
     81 H38        -0.3978    0.3245   -1.8868 H         1 <0>         0.1063
     82 H39         1.9287    6.2742    1.1048 H         1 <0>         0.4792
     83 H40         1.3225    7.8557    0.7245 H         1 <0>         0.4819
     84 H41        -1.6601    6.7429   -1.0146 H         1 <0>         0.4802
     85 H42        -0.7481    8.1323   -0.4992 H         1 <0>         0.4826
     86 H43         0.8216    0.7626    0.7549 H         1 <0>         0.3101
     87 H44        -4.7157   -3.0377    1.7764 H         1 <0>         0.3087
     88 H45         0.6822    4.3187    0.3968 H         1 <0>         0.4846
     89 H46       -10.7303   -7.6222   -2.3273 H         1 <0>         0.4194
     90 H47         1.8515   -6.8926    0.0654 H         1 <0>         0.4036
     91 H48         2.9636    1.7601   -1.6856 H         1 <0>         0.4114
     92 H49        -5.6131   -6.2600    0.5986 H         1 <0>         0.3944
@<TRIPOS>BOND
     1    1    3 ar
     2    1    5 ar
     3    2    4 ar
     4    2    5 ar
     5    3    6 ar
     6    4    6 ar
     7    5   21 1
     8    6   40 1
     9    7   15 1
    10    7   34 am
    11    7   37 2
    12    8   27 1
    13    8   31 am
    14    8   38 2
    15    9   28 1
    16    9   35 am
    17    9   39 2
    18   10   32 1
    19   10   33 1
    20   10   36 1
    21   11   12 1
    22   11   16 1
    23   12   18 1
    24   13   15 1
    25   13   16 1
    26   14   17 1
    27   14   18 1
    28   15   31 1
    29   16   17 1
    30   17   31 1
    31   18   41 1
    32   19   29 1
    33   20   29 1
    34   21   28 1
    35   22   23 1
    36   22   25 1
    37   23   30 1
    38   24   27 1
    39   24   29 1
    40   25   36 1
    41   26   30 1
    42   26   42 1
    43   27   35 1
    44   28   43 1
    45   30   34 1
    46    1   44 1
    47    2   45 1
    48    3   46 1
    49    4   47 1
    50   11   48 1
    51   11   49 1
    52   12   50 1
    53   12   51 1
    54   13   52 1
    55   13   53 1
    56   14   54 1
    57   14   55 1
    58   15   56 1
    59   16   57 1
    60   17   58 1
    61   18   59 1
    62   19   60 1
    63   19   61 1
    64   19   62 1
    65   20   63 1
    66   20   64 1
    67   20   65 1
    68   21   66 1
    69   21   67 1
    70   22   68 1
    71   22   69 1
    72   23   70 1
    73   23   71 1
    74   24   72 1
    75   24   73 1
    76   25   74 1
    77   25   75 1
    78   26   76 1
    79   26   77 1
    80   27   78 1
    81   28   79 1
    82   29   80 1
    83   30   81 1
    84   32   82 1
    85   32   83 1
    86   33   84 1
    87   33   85 1
    88   34   86 1
    89   35   87 1
    90   36   88 1
    91   40   89 1
    92   41   90 1
    93   42   91 1
    94   43   92 1
@<TRIPOS>MOLECULE
1a2c_ligand_90
   92    94     0     0     0
SMALL
USER_CHARGES

mmff94s_NoEstat = 110.09
@<TRIPOS>ATOM
      1 C1         -7.7321   -6.3947    0.9855 C.ar      1 <0>        -0.0708
      2 C2         -5.9176   -7.7704    0.1779 C.ar      1 <0>        -0.0872
      3 C3         -8.6337   -7.4232    0.7116 C.ar      1 <0>        -0.2241
      4 C4         -6.8193   -8.7989   -0.0959 C.ar      1 <0>        -0.1600
      5 C5         -6.3862   -6.5821    0.7150 C.ar      1 <0>        -0.1356
      6 C6         -8.1773   -8.6253    0.1709 C.ar      1 <0>         0.1290
      7 C7         -0.0512   -1.0561    0.2993 C.2       1 <0>         0.6664
      8 C8         -1.8469   -3.0457    2.1630 C.2       1 <0>         0.6651
      9 C9         -3.9484   -3.7154   -0.0348 C.2       1 <0>         0.6454
     10 C10        -2.7746    6.0237    0.0845 C.cat     1 <0>         0.6349
     11 C11         2.5186   -3.1911    0.6823 C.3       1 <0>        -0.0642
     12 C12         2.4580   -4.6414    0.2376 C.3       1 <0>        -0.0747
     13 C13         1.4874   -1.4827    2.2418 C.3       1 <0>        -0.0873
     14 C14         0.4946   -5.0934    1.7133 C.3       1 <0>        -0.1371
     15 C15         0.0412   -1.4176    1.7503 C.3       1 <0>         0.0360
     16 C16         1.8865   -2.9529    2.0632 C.3       1 <0>        -0.0720
     17 C17         0.5665   -3.7001    2.3454 C.3       1 <0>         0.1201
     18 C18         1.0248   -5.1525    0.2868 C.3       1 <0>         0.1453
     19 C19        -5.5746   -0.7475    1.4860 C.3       1 <0>        -0.0968
     20 C20        -3.7112    0.7464    0.7408 C.3       1 <0>        -0.0986
     21 C21        -5.4100   -5.4690    1.0122 C.3       1 <0>        -0.0191
     22 C22        -1.0374    2.7415   -0.6235 C.3       1 <0>        -0.1009
     23 C23         0.2513    2.2726   -1.3090 C.3       1 <0>        -0.0942
     24 C24        -3.2372   -1.0062    2.4788 C.3       1 <0>        -0.0988
     25 C25        -1.1758    4.2607   -0.6924 C.3       1 <0>         0.1966
     26 C26         1.7383    0.3016   -2.0469 C.3       1 <0>         0.1128
     27 C27        -2.8325   -2.1090    1.5076 C.3       1 <0>         0.0786
     28 C28        -5.2285   -4.5282   -0.1835 C.3       1 <0>         0.0744
     29 C29        -4.2955   -0.0321    1.9228 C.3       1 <0>        -0.0678
     30 C30         0.4555    0.7445   -1.3388 C.3       1 <0>         0.1065
     31 N1         -0.4979   -2.7598    1.9615 N.am      1 <0>        -0.4315
     32 N2         -3.9558    6.3783    0.7278 N.pl3     1 <0>        -0.8671
     33 N3         -1.9667    7.0223   -0.4484 N.pl3     1 <0>        -0.8581
     34 N4          0.4455    0.1980   -0.0008 N.am      1 <0>        -0.5687
     35 N5         -3.9193   -2.9688    1.1410 N.am      1 <0>        -0.5746
     36 N6         -2.3904    4.6766   -0.0323 N.pl3     1 <0>        -0.7533
     37 O1         -0.5362   -1.8555   -0.4928 O.2       1 <0>        -0.5843
     38 O2         -2.2659   -3.9924    2.8322 O.2       1 <0>        -0.6812
     39 O3         -3.0587   -3.7239   -0.8825 O.2       1 <0>        -0.5788
     40 O4         -9.0569   -9.6294   -0.0948 O.3       1 <0>        -0.4938
     41 O5          0.9879   -6.5072   -0.1510 O.3       1 <0>        -0.6030
     42 O6          2.8703    0.8436   -1.3793 O.3       1 <0>        -0.5860
     43 O7         -6.3247   -3.6263   -0.2319 O.3       1 <0>        -0.6021
     44 H1         -8.0970   -5.4618    1.4065 H         1 <0>         0.1412
     45 H2         -4.8612   -7.9147   -0.0329 H         1 <0>         0.1451
     46 H3         -9.6902   -7.2819    0.9218 H         1 <0>         0.1336
     47 H4         -6.4574   -9.7335   -0.5163 H         1 <0>         0.1567
     48 H5          3.5627   -2.8549    0.7003 H         1 <0>         0.0649
     49 H6          2.0259   -2.5829   -0.0837 H         1 <0>         0.0476
     50 H7          2.8567   -4.7427   -0.7790 H         1 <0>         0.0641
     51 H8          3.1032   -5.2618    0.8729 H         1 <0>         0.0484
     52 H9          2.1569   -0.7868    1.7257 H         1 <0>         0.0596
     53 H10         1.5124   -1.2395    3.3116 H         1 <0>         0.0757
     54 H11         1.0921   -5.7802    2.3299 H         1 <0>         0.0782
     55 H12        -0.5175   -5.5090    1.7393 H         1 <0>         0.0812
     56 H13        -0.5378   -0.6778    2.3126 H         1 <0>         0.0731
     57 H14         2.6304   -3.2407    2.8169 H         1 <0>         0.0511
     58 H15         0.4523   -3.8218    3.4319 H         1 <0>         0.0753
     59 H16         0.3841   -4.5700   -0.3844 H         1 <0>         0.0427
     60 H17        -6.2768   -0.0422    1.0282 H         1 <0>         0.0450
     61 H18        -6.0867   -1.2049    2.3377 H         1 <0>         0.0406
     62 H19        -5.3599   -1.5330    0.7535 H         1 <0>         0.0274
     63 H20        -3.4369    0.0757   -0.0807 H         1 <0>         0.0476
     64 H21        -4.4352    1.4732    0.3573 H         1 <0>         0.0170
     65 H22        -2.8146    1.2981    1.0427 H         1 <0>         0.0477
     66 H23        -4.4434   -5.9047    1.2984 H         1 <0>         0.0814
     67 H24        -5.7660   -4.9245    1.8958 H         1 <0>         0.0685
     68 H25        -1.9092    2.2808   -1.1025 H         1 <0>         0.1016
     69 H26        -1.0467    2.4234    0.4259 H         1 <0>         0.0660
     70 H27         1.1110    2.7323   -0.8028 H         1 <0>         0.0512
     71 H28         0.2685    2.6560   -2.3373 H         1 <0>         0.0454
     72 H29        -2.3434   -0.4411    2.7760 H         1 <0>         0.0575
     73 H30        -3.6273   -1.4576    3.4018 H         1 <0>         0.0743
     74 H31        -1.2027    4.5928   -1.7356 H         1 <0>         0.0662
     75 H32        -0.3220    4.7463   -0.2087 H         1 <0>         0.0622
     76 H33         1.7614    0.6251   -3.0928 H         1 <0>         0.0321
     77 H34         1.8289   -0.7905   -2.0281 H         1 <0>         0.0204
     78 H35        -2.3687   -1.7253    0.5998 H         1 <0>         0.0749
     79 H36        -5.1957   -5.0805   -1.1302 H         1 <0>         0.0719
     80 H37        -4.5575    0.6951    2.7011 H         1 <0>         0.0609
     81 H38        -0.3978    0.3245   -1.8868 H         1 <0>         0.1063
     82 H39        -4.5782    5.6828    1.1306 H         1 <0>         0.4792
     83 H40        -4.2329    7.3536    0.8111 H         1 <0>         0.4819
     84 H41        -1.0966    6.7983   -0.9251 H         1 <0>         0.4802
     85 H42        -2.2244    8.0035   -0.3744 H         1 <0>         0.4826
     86 H43         0.8216    0.7626    0.7549 H         1 <0>         0.3101
     87 H44        -4.7157   -3.0377    1.7764 H         1 <0>         0.3087
     88 H45        -3.0238    3.9804    0.3791 H         1 <0>         0.4846
     89 H46        -9.9180   -9.2630   -0.3518 H         1 <0>         0.4194
     90 H47         1.8515   -6.8926    0.0654 H         1 <0>         0.4036
     91 H48         2.9636    1.7601   -1.6856 H         1 <0>         0.4114
     92 H49        -7.0193   -3.9975    0.3363 H         1 <0>         0.3944
@<TRIPOS>BOND
     1    1    3 ar
     2    1    5 ar
     3    2    4 ar
     4    2    5 ar
     5    3    6 ar
     6    4    6 ar
     7    5   21 1
     8    6   40 1
     9    7   15 1
    10    7   34 am
    11    7   37 2
    12    8   27 1
    13    8   31 am
    14    8   38 2
    15    9   28 1
    16    9   35 am
    17    9   39 2
    18   10   32 1
    19   10   33 1
    20   10   36 1
    21   11   12 1
    22   11   16 1
    23   12   18 1
    24   13   15 1
    25   13   16 1
    26   14   17 1
    27   14   18 1
    28   15   31 1
    29   16   17 1
    30   17   31 1
    31   18   41 1
    32   19   29 1
    33   20   29 1
    34   21   28 1
    35   22   23 1
    36   22   25 1
    37   23   30 1
    38   24   27 1
    39   24   29 1
    40   25   36 1
    41   26   30 1
    42   26   42 1
    43   27   35 1
    44   28   43 1
    45   30   34 1
    46    1   44 1
    47    2   45 1
    48    3   46 1
    49    4   47 1
    50   11   48 1
    51   11   49 1
    52   12   50 1
    53   12   51 1
    54   13   52 1
    55   13   53 1
    56   14   54 1
    57   14   55 1
    58   15   56 1
    59   16   57 1
    60   17   58 1
    61   18   59 1
    62   19   60 1
    63   19   61 1
    64   19   62 1
    65   20   63 1
    66   20   64 1
    67   20   65 1
    68   21   66 1
    69   21   67 1
    70   22   68 1
    71   22   69 1
    72   23   70 1
    73   23   71 1
    74   24   72 1
    75   24   73 1
    76   25   74 1
    77   25   75 1
    78   26   76 1
    79   26   77 1
    80   27   78 1
    81   28   79 1
    82   29   80 1
    83   30   81 1
    84   32   82 1
    85   32   83 1
    86   33   84 1
    87   33   85 1
    88   34   86 1
    89   35   87 1
    90   36   88 1
    91   40   89 1
    92   41   90 1
    93   42   91 1
    94   43   92 1
@<TRIPOS>MOLECULE
1a2c_ligand_91
   92    94     0     0     0
SMALL
USER_CHARGES

mmff94s_NoEstat = 110.10
@<TRIPOS>ATOM
      1 C1          8.7134   -2.2414    5.6573 C.ar      1 <0>        -0.0708
      2 C2          7.1386   -3.9431    4.9781 C.ar      1 <0>        -0.0872
      3 C3          8.8315   -2.8496    6.9070 C.ar      1 <0>        -0.2241
      4 C4          7.2568   -4.5513    6.2278 C.ar      1 <0>        -0.1600
      5 C5          7.8686   -2.7964    4.7096 C.ar      1 <0>        -0.1356
      6 C6          8.1032   -4.0045    7.1923 C.ar      1 <0>         0.1290
      7 C7          0.1755   -1.0766    0.1327 C.2       1 <0>         0.6664
      8 C8          2.3785   -0.9757    2.2764 C.2       1 <0>         0.6651
      9 C9          5.2695   -1.7615    3.1198 C.2       1 <0>         0.6454
     10 C10         0.0177    5.1861   -4.1496 C.cat     1 <0>         0.6349
     11 C11         2.4521   -5.3069   -0.2561 C.3       1 <0>        -0.0642
     12 C12         1.2413   -5.9691    0.3982 C.3       1 <0>        -0.0747
     13 C13         1.5734   -2.9393   -0.7647 C.3       1 <0>        -0.0873
     14 C14         1.0938   -4.1277    2.1072 C.3       1 <0>        -0.1371
     15 C15         1.5650   -1.6216    0.0133 C.3       1 <0>         0.0360
     16 C16         2.5597   -3.8106    0.0203 C.3       1 <0>        -0.0720
     17 C17         2.2934   -3.4012    1.4755 C.3       1 <0>         0.1201
     18 C18         1.1411   -5.6363    1.8853 C.3       1 <0>         0.1453
     19 C19         3.8896   -0.8379    6.4377 C.3       1 <0>        -0.0968
     20 C20         2.2599   -2.7349    6.3694 C.3       1 <0>        -0.0986
     21 C21         7.7412   -2.1384    3.3563 C.3       1 <0>        -0.0191
     22 C22        -0.8155    2.0502   -2.2095 C.3       1 <0>        -0.1009
     23 C23        -1.7941    0.8762   -2.3301 C.3       1 <0>        -0.0942
     24 C24         1.9925   -0.8489    4.7298 C.3       1 <0>        -0.0988
     25 C25        -1.0015    3.0414   -3.3563 C.3       1 <0>         0.1966
     26 C26        -2.7214   -1.3050   -1.3187 C.3       1 <0>         0.1128
     27 C27         2.8496   -1.4560    3.6253 C.3       1 <0>         0.0786
     28 C28         6.6222   -1.0920    3.3282 C.3       1 <0>         0.0744
     29 C29         2.4383   -1.2292    6.1562 C.3       1 <0>        -0.0678
     30 C30        -1.7203   -0.1547   -1.1858 C.3       1 <0>         0.1065
     31 N1          2.0322   -1.9586    1.3590 N.am      1 <0>        -0.4315
     32 N2          0.9368    6.2166   -3.9817 N.pl3     1 <0>        -0.8671
     33 N3         -0.8308    5.2073   -5.2513 N.pl3     1 <0>        -0.8581
     34 N4         -0.3878   -0.7030   -1.0725 N.am      1 <0>        -0.5687
     35 N5          4.2184   -1.0331    3.6724 N.am      1 <0>        -0.5746
     36 N6         -0.0630    4.1305   -3.2250 N.pl3     1 <0>        -0.7533
     37 O1         -0.3509   -1.0007    1.2367 O.2       1 <0>        -0.5843
     38 O2          2.3230    0.2335    2.0409 O.2       1 <0>        -0.6812
     39 O3          5.1476   -2.8360    2.5359 O.2       1 <0>        -0.5788
     40 O4          8.2197   -4.5989    8.4112 O.3       1 <0>        -0.4938
     41 O5          2.2611   -6.1715    2.5852 O.3       1 <0>        -0.6030
     42 O6         -2.4752   -2.0231   -2.5206 O.3       1 <0>        -0.5860
     43 O7          6.8495   -0.2021    2.2447 O.3       1 <0>        -0.6021
     44 H1          9.2846   -1.3419    5.4443 H         1 <0>         0.1412
     45 H2          6.4769   -4.3764    4.2325 H         1 <0>         0.1451
     46 H3          9.4925   -2.4190    7.6540 H         1 <0>         0.1336
     47 H4          6.6874   -5.4515    6.4438 H         1 <0>         0.1567
     48 H5          3.3605   -5.7937    0.1218 H         1 <0>         0.0649
     49 H6          2.4319   -5.4897   -1.3370 H         1 <0>         0.0476
     50 H7          0.3241   -5.6545   -0.1129 H         1 <0>         0.0641
     51 H8          1.3294   -7.0545    0.2691 H         1 <0>         0.0484
     52 H9          0.5754   -3.3919   -0.8000 H         1 <0>         0.0596
     53 H10         1.8977   -2.7914   -1.8003 H         1 <0>         0.0757
     54 H11         1.0807   -3.9085    3.1823 H         1 <0>         0.0782
     55 H12         0.1523   -3.7376    1.7002 H         1 <0>         0.0812
     56 H13         2.2202   -0.8626   -0.4249 H         1 <0>         0.0731
     57 H14         3.5726   -3.4842   -0.2571 H         1 <0>         0.0511
     58 H15         3.1875   -3.5701    2.0864 H         1 <0>         0.0753
     59 H16         0.2435   -6.1003    2.3075 H         1 <0>         0.0427
     60 H17         4.2001   -1.1859    7.4289 H         1 <0>         0.0450
     61 H18         4.0203    0.2482    6.4220 H         1 <0>         0.0406
     62 H19         4.5693   -1.2752    5.6986 H         1 <0>         0.0274
     63 H20         2.8852   -3.3113    5.6789 H         1 <0>         0.0476
     64 H21         2.5335   -3.0185    7.3913 H         1 <0>         0.0170
     65 H22         1.2173   -3.0301    6.2104 H         1 <0>         0.0477
     66 H23         7.5546   -2.9097    2.5971 H         1 <0>         0.0814
     67 H24         8.7095   -1.6918    3.0973 H         1 <0>         0.0685
     68 H25        -0.9672    2.5721   -1.2575 H         1 <0>         0.1016
     69 H26         0.2183    1.6845   -2.2100 H         1 <0>         0.0660
     70 H27        -1.6130    0.3584   -3.2819 H         1 <0>         0.0512
     71 H28        -2.8171    1.2691   -2.3922 H         1 <0>         0.0454
     72 H29         0.9469   -1.1516    4.5828 H         1 <0>         0.0575
     73 H30         2.0032    0.2464    4.6399 H         1 <0>         0.0743
     74 H31        -2.0203    3.4431   -3.3499 H         1 <0>         0.0662
     75 H32        -0.8427    2.5473   -4.3203 H         1 <0>         0.0622
     76 H33        -3.7565   -0.9478   -1.3308 H         1 <0>         0.0321
     77 H34        -2.6144   -2.0048   -0.4820 H         1 <0>         0.0204
     78 H35         2.8203   -2.5449    3.6159 H         1 <0>         0.0749
     79 H36         6.5944   -0.5059    4.2543 H         1 <0>         0.0719
     80 H37         1.7968   -0.7138    6.8816 H         1 <0>         0.0609
     81 H38        -1.9472    0.3883   -0.2591 H         1 <0>         0.1063
     82 H39         1.5752    6.2439   -3.1911 H         1 <0>         0.4792
     83 H40         0.9937    6.9803   -4.6514 H         1 <0>         0.4819
     84 H41        -1.5145    4.4701   -5.4045 H         1 <0>         0.4802
     85 H42        -0.7890    5.9606   -5.9336 H         1 <0>         0.4826
     86 H43         0.1607   -0.8193   -1.9192 H         1 <0>         0.3101
     87 H44         4.4349   -0.1495    4.1364 H         1 <0>         0.3087
     88 H45         0.5869    4.1646   -2.4302 H         1 <0>         0.4846
     89 H46         8.3834   -3.9314    9.0965 H         1 <0>         0.4194
     90 H47         2.7873   -5.4145    2.8873 H         1 <0>         0.4036
     91 H48        -2.8906   -1.5183   -3.2383 H         1 <0>         0.4114
     92 H49         7.7718   -0.3269    1.9673 H         1 <0>         0.3944
@<TRIPOS>BOND
     1    1    3 ar
     2    1    5 ar
     3    2    4 ar
     4    2    5 ar
     5    3    6 ar
     6    4    6 ar
     7    5   21 1
     8    6   40 1
     9    7   15 1
    10    7   34 am
    11    7   37 2
    12    8   27 1
    13    8   31 am
    14    8   38 2
    15    9   28 1
    16    9   35 am
    17    9   39 2
    18   10   32 1
    19   10   33 1
    20   10   36 1
    21   11   12 1
    22   11   16 1
    23   12   18 1
    24   13   15 1
    25   13   16 1
    26   14   17 1
    27   14   18 1
    28   15   31 1
    29   16   17 1
    30   17   31 1
    31   18   41 1
    32   19   29 1
    33   20   29 1
    34   21   28 1
    35   22   23 1
    36   22   25 1
    37   23   30 1
    38   24   27 1
    39   24   29 1
    40   25   36 1
    41   26   30 1
    42   26   42 1
    43   27   35 1
    44   28   43 1
    45   30   34 1
    46    1   44 1
    47    2   45 1
    48    3   46 1
    49    4   47 1
    50   11   48 1
    51   11   49 1
    52   12   50 1
    53   12   51 1
    54   13   52 1
    55   13   53 1
    56   14   54 1
    57   14   55 1
    58   15   56 1
    59   16   57 1
    60   17   58 1
    61   18   59 1
    62   19   60 1
    63   19   61 1
    64   19   62 1
    65   20   63 1
    66   20   64 1
    67   20   65 1
    68   21   66 1
    69   21   67 1
    70   22   68 1
    71   22   69 1
    72   23   70 1
    73   23   71 1
    74   24   72 1
    75   24   73 1
    76   25   74 1
    77   25   75 1
    78   26   76 1
    79   26   77 1
    80   27   78 1
    81   28   79 1
    82   29   80 1
    83   30   81 1
    84   32   82 1
    85   32   83 1
    86   33   84 1
    87   33   85 1
    88   34   86 1
    89   35   87 1
    90   36   88 1
    91   40   89 1
    92   41   90 1
    93   42   91 1
    94   43   92 1
@<TRIPOS>MOLECULE
1a2c_ligand_92
   92    94     0     0     0
SMALL
USER_CHARGES

mmff94s_NoEstat = 110.20
@<TRIPOS>ATOM
      1 C1         -8.1430   -5.2700   -1.6236 C.ar      1 <0>        -0.0708
      2 C2         -8.4504   -3.7980    0.2673 C.ar      1 <0>        -0.0872
      3 C3         -9.4290   -5.7773   -1.4378 C.ar      1 <0>        -0.2241
      4 C4         -9.7364   -4.3052    0.4531 C.ar      1 <0>        -0.1600
      5 C5         -7.6710   -4.2872   -0.7686 C.ar      1 <0>        -0.1356
      6 C6        -10.2258   -5.2949   -0.3994 C.ar      1 <0>         0.1290
      7 C7         -0.0512   -1.0561    0.2993 C.2       1 <0>         0.6664
      8 C8         -1.8469   -3.0457    2.1630 C.2       1 <0>         0.6651
      9 C9         -3.9484   -3.7154   -0.0348 C.2       1 <0>         0.6454
     10 C10        -2.4515    4.9743    1.3401 C.cat     1 <0>         0.6349
     11 C11         2.5186   -3.1911    0.6823 C.3       1 <0>        -0.0642
     12 C12         2.4580   -4.6414    0.2376 C.3       1 <0>        -0.0747
     13 C13         1.4874   -1.4827    2.2418 C.3       1 <0>        -0.0873
     14 C14         0.4946   -5.0934    1.7133 C.3       1 <0>        -0.1371
     15 C15         0.0412   -1.4176    1.7503 C.3       1 <0>         0.0360
     16 C16         1.8865   -2.9529    2.0632 C.3       1 <0>        -0.0720
     17 C17         0.5665   -3.7001    2.3454 C.3       1 <0>         0.1201
     18 C18         1.0248   -5.1525    0.2868 C.3       1 <0>         0.1453
     19 C19        -5.5746   -0.7475    1.4860 C.3       1 <0>        -0.0968
     20 C20        -3.7112    0.7464    0.7408 C.3       1 <0>        -0.0986
     21 C21        -6.2790   -3.7375   -0.9703 C.3       1 <0>        -0.0191
     22 C22        -1.0374    2.7415   -0.6235 C.3       1 <0>        -0.1009
     23 C23         0.2513    2.2726   -1.3090 C.3       1 <0>        -0.0942
     24 C24        -3.2372   -1.0062    2.4788 C.3       1 <0>        -0.0988
     25 C25        -1.1758    4.2607   -0.6924 C.3       1 <0>         0.1966
     26 C26         1.7383    0.3016   -2.0469 C.3       1 <0>         0.1128
     27 C27        -2.8325   -2.1090    1.5076 C.3       1 <0>         0.0786
     28 C28        -5.2285   -4.5282   -0.1835 C.3       1 <0>         0.0744
     29 C29        -4.2955   -0.0321    1.9228 C.3       1 <0>        -0.0678
     30 C30         0.4555    0.7445   -1.3388 C.3       1 <0>         0.1065
     31 N1         -0.4979   -2.7598    1.9615 N.am      1 <0>        -0.4315
     32 N2         -3.6443    5.3738    1.9338 N.pl3     1 <0>        -0.8671
     33 N3         -1.3064    4.8702    2.1224 N.pl3     1 <0>        -0.8581
     34 N4          0.4455    0.1980   -0.0008 N.am      1 <0>        -0.5687
     35 N5         -3.9193   -2.9688    1.1410 N.am      1 <0>        -0.5746
     36 N6         -2.3904    4.6766   -0.0323 N.pl3     1 <0>        -0.7533
     37 O1         -0.5362   -1.8555   -0.4928 O.2       1 <0>        -0.5843
     38 O2         -2.2659   -3.9924    2.8322 O.2       1 <0>        -0.6812
     39 O3         -3.0587   -3.7239   -0.8825 O.2       1 <0>        -0.5788
     40 O4        -11.4813   -5.7887   -0.2191 O.3       1 <0>        -0.4938
     41 O5          0.9879   -6.5072   -0.1510 O.3       1 <0>        -0.6030
     42 O6          2.8703    0.8436   -1.3793 O.3       1 <0>        -0.5860
     43 O7         -4.9192   -5.7187   -0.8939 O.3       1 <0>        -0.6021
     44 H1         -7.5297   -5.6521   -2.4352 H         1 <0>         0.1412
     45 H2         -8.0776   -3.0267    0.9363 H         1 <0>         0.1451
     46 H3         -9.8045   -6.5479   -2.1053 H         1 <0>         0.1336
     47 H4        -10.3528   -3.9247    1.2634 H         1 <0>         0.1567
     48 H5          3.5627   -2.8549    0.7003 H         1 <0>         0.0649
     49 H6          2.0259   -2.5829   -0.0837 H         1 <0>         0.0476
     50 H7          2.8567   -4.7427   -0.7790 H         1 <0>         0.0641
     51 H8          3.1032   -5.2618    0.8729 H         1 <0>         0.0484
     52 H9          2.1569   -0.7868    1.7257 H         1 <0>         0.0596
     53 H10         1.5124   -1.2395    3.3116 H         1 <0>         0.0757
     54 H11         1.0921   -5.7802    2.3299 H         1 <0>         0.0782
     55 H12        -0.5175   -5.5090    1.7393 H         1 <0>         0.0812
     56 H13        -0.5378   -0.6778    2.3126 H         1 <0>         0.0731
     57 H14         2.6304   -3.2407    2.8169 H         1 <0>         0.0511
     58 H15         0.4523   -3.8218    3.4319 H         1 <0>         0.0753
     59 H16         0.3841   -4.5700   -0.3844 H         1 <0>         0.0427
     60 H17        -6.2768   -0.0422    1.0282 H         1 <0>         0.0450
     61 H18        -6.0867   -1.2049    2.3377 H         1 <0>         0.0406
     62 H19        -5.3599   -1.5330    0.7535 H         1 <0>         0.0274
     63 H20        -3.4369    0.0757   -0.0807 H         1 <0>         0.0476
     64 H21        -4.4352    1.4732    0.3573 H         1 <0>         0.0170
     65 H22        -2.8146    1.2981    1.0427 H         1 <0>         0.0477
     66 H23        -6.2612   -2.6822   -0.6666 H         1 <0>         0.0814
     67 H24        -6.0581   -3.7432   -2.0450 H         1 <0>         0.0685
     68 H25        -1.9092    2.2808   -1.1025 H         1 <0>         0.1016
     69 H26        -1.0467    2.4234    0.4259 H         1 <0>         0.0660
     70 H27         1.1110    2.7323   -0.8028 H         1 <0>         0.0512
     71 H28         0.2685    2.6560   -2.3373 H         1 <0>         0.0454
     72 H29        -2.3434   -0.4411    2.7760 H         1 <0>         0.0575
     73 H30        -3.6273   -1.4576    3.4018 H         1 <0>         0.0743
     74 H31        -1.2027    4.5928   -1.7356 H         1 <0>         0.0662
     75 H32        -0.3220    4.7463   -0.2087 H         1 <0>         0.0622
     76 H33         1.7614    0.6251   -3.0928 H         1 <0>         0.0321
     77 H34         1.8289   -0.7905   -2.0281 H         1 <0>         0.0204
     78 H35        -2.3687   -1.7253    0.5998 H         1 <0>         0.0749
     79 H36        -5.5950   -4.8071    0.8115 H         1 <0>         0.0719
     80 H37        -4.5575    0.6951    2.7011 H         1 <0>         0.0609
     81 H38        -0.3978    0.3245   -1.8868 H         1 <0>         0.1063
     82 H39        -4.5053    5.4657    1.4014 H         1 <0>         0.4792
     83 H40        -3.6869    5.5895    2.9271 H         1 <0>         0.4819
     84 H41        -0.4179    4.5810    1.7206 H         1 <0>         0.4802
     85 H42        -1.3278    5.0794    3.1176 H         1 <0>         0.4826
     86 H43         0.8216    0.7626    0.7549 H         1 <0>         0.3101
     87 H44        -4.7157   -3.0377    1.7764 H         1 <0>         0.3087
     88 H45        -3.2652    4.7701   -0.5626 H         1 <0>         0.4846
     89 H46       -11.5161   -6.7226   -0.4809 H         1 <0>         0.4194
     90 H47         1.8515   -6.8926    0.0654 H         1 <0>         0.4036
     91 H48         2.9636    1.7601   -1.6856 H         1 <0>         0.4114
     92 H49        -5.6257   -5.8474   -1.5477 H         1 <0>         0.3944
@<TRIPOS>BOND
     1    1    3 ar
     2    1    5 ar
     3    2    4 ar
     4    2    5 ar
     5    3    6 ar
     6    4    6 ar
     7    5   21 1
     8    6   40 1
     9    7   15 1
    10    7   34 am
    11    7   37 2
    12    8   27 1
    13    8   31 am
    14    8   38 2
    15    9   28 1
    16    9   35 am
    17    9   39 2
    18   10   32 1
    19   10   33 1
    20   10   36 1
    21   11   12 1
    22   11   16 1
    23   12   18 1
    24   13   15 1
    25   13   16 1
    26   14   17 1
    27   14   18 1
    28   15   31 1
    29   16   17 1
    30   17   31 1
    31   18   41 1
    32   19   29 1
    33   20   29 1
    34   21   28 1
    35   22   23 1
    36   22   25 1
    37   23   30 1
    38   24   27 1
    39   24   29 1
    40   25   36 1
    41   26   30 1
    42   26   42 1
    43   27   35 1
    44   28   43 1
    45   30   34 1
    46    1   44 1
    47    2   45 1
    48    3   46 1
    49    4   47 1
    50   11   48 1
    51   11   49 1
    52   12   50 1
    53   12   51 1
    54   13   52 1
    55   13   53 1
    56   14   54 1
    57   14   55 1
    58   15   56 1
    59   16   57 1
    60   17   58 1
    61   18   59 1
    62   19   60 1
    63   19   61 1
    64   19   62 1
    65   20   63 1
    66   20   64 1
    67   20   65 1
    68   21   66 1
    69   21   67 1
    70   22   68 1
    71   22   69 1
    72   23   70 1
    73   23   71 1
    74   24   72 1
    75   24   73 1
    76   25   74 1
    77   25   75 1
    78   26   76 1
    79   26   77 1
    80   27   78 1
    81   28   79 1
    82   29   80 1
    83   30   81 1
    84   32   82 1
    85   32   83 1
    86   33   84 1
    87   33   85 1
    88   34   86 1
    89   35   87 1
    90   36   88 1
    91   40   89 1
    92   41   90 1
    93   42   91 1
    94   43   92 1
@<TRIPOS>MOLECULE
1a2c_ligand_93
   92    94     0     0     0
SMALL
USER_CHARGES

mmff94s_NoEstat = 110.23
@<TRIPOS>ATOM
      1 C1          9.9405   -0.9977    3.3373 C.ar      1 <0>        -0.0708
      2 C2          9.3910   -1.6914    5.5854 C.ar      1 <0>        -0.0872
      3 C3         11.1357   -0.4468    3.7995 C.ar      1 <0>        -0.2241
      4 C4         10.5862   -1.1405    6.0475 C.ar      1 <0>        -0.1600
      5 C5          9.0842   -1.6127    4.2364 C.ar      1 <0>        -0.1356
      6 C6         11.4586   -0.5182    5.1546 C.ar      1 <0>         0.1290
      7 C7          0.1755   -1.0766    0.1327 C.2       1 <0>         0.6664
      8 C8          2.3785   -0.9757    2.2764 C.2       1 <0>         0.6651
      9 C9          5.2968   -1.9145    3.7000 C.2       1 <0>         0.6454
     10 C10        -0.9027    3.0370   -5.8579 C.cat     1 <0>         0.6349
     11 C11         2.4521   -5.3069   -0.2561 C.3       1 <0>        -0.0642
     12 C12         1.2413   -5.9691    0.3982 C.3       1 <0>        -0.0747
     13 C13         1.5734   -2.9393   -0.7647 C.3       1 <0>        -0.0873
     14 C14         1.0938   -4.1277    2.1072 C.3       1 <0>        -0.1371
     15 C15         1.5650   -1.6216    0.0133 C.3       1 <0>         0.0360
     16 C16         2.5597   -3.8106    0.0203 C.3       1 <0>        -0.0720
     17 C17         2.2934   -3.4012    1.4755 C.3       1 <0>         0.1201
     18 C18         1.1411   -5.6363    1.8853 C.3       1 <0>         0.1453
     19 C19         3.8896   -0.8379    6.4377 C.3       1 <0>        -0.0968
     20 C20         2.2599   -2.7349    6.3694 C.3       1 <0>        -0.0986
     21 C21         7.7906   -2.2097    3.7359 C.3       1 <0>        -0.0191
     22 C22        -0.8155    2.0502   -2.2095 C.3       1 <0>        -0.1009
     23 C23        -1.7941    0.8762   -2.3301 C.3       1 <0>        -0.0942
     24 C24         1.9925   -0.8489    4.7298 C.3       1 <0>        -0.0988
     25 C25        -1.0015    3.0414   -3.3563 C.3       1 <0>         0.1966
     26 C26        -2.7214   -1.3050   -1.3187 C.3       1 <0>         0.1128
     27 C27         2.8496   -1.4560    3.6253 C.3       1 <0>         0.0786
     28 C28         6.6400   -1.1984    3.7670 C.3       1 <0>         0.0744
     29 C29         2.4383   -1.2292    6.1562 C.3       1 <0>        -0.0678
     30 C30        -1.7203   -0.1547   -1.1858 C.3       1 <0>         0.1065
     31 N1          2.0322   -1.9586    1.3590 N.am      1 <0>        -0.4315
     32 N2         -0.6764    2.3611   -7.0524 N.pl3     1 <0>        -0.8671
     33 N3         -1.2564    4.3814   -5.8961 N.pl3     1 <0>        -0.8581
     34 N4         -0.3878   -0.7030   -1.0725 N.am      1 <0>        -0.5687
     35 N5          4.2184   -1.0331    3.6724 N.am      1 <0>        -0.5746
     36 N6         -0.7789    2.3814   -4.6207 N.pl3     1 <0>        -0.7533
     37 O1         -0.3509   -1.0007    1.2367 O.2       1 <0>        -0.5843
     38 O2          2.3230    0.2335    2.0409 O.2       1 <0>        -0.6812
     39 O3          5.2019   -3.1398    3.6875 O.2       1 <0>        -0.5788
     40 O4         12.6257    0.0180    5.6053 O.3       1 <0>        -0.4938
     41 O5          2.2611   -6.1715    2.5852 O.3       1 <0>        -0.6030
     42 O6         -2.4752   -2.0231   -2.5206 O.3       1 <0>        -0.5860
     43 O7          6.7453   -0.3444    2.6370 O.3       1 <0>        -0.6021
     44 H1          9.6976   -0.9371    2.2799 H         1 <0>         0.1412
     45 H2          8.7174   -2.1747    6.2883 H         1 <0>         0.1451
     46 H3         11.8111    0.0364    3.0990 H         1 <0>         0.1336
     47 H4         10.8326   -1.2001    7.1044 H         1 <0>         0.1567
     48 H5          3.3605   -5.7937    0.1218 H         1 <0>         0.0649
     49 H6          2.4319   -5.4897   -1.3370 H         1 <0>         0.0476
     50 H7          0.3241   -5.6545   -0.1129 H         1 <0>         0.0641
     51 H8          1.3294   -7.0545    0.2691 H         1 <0>         0.0484
     52 H9          0.5754   -3.3919   -0.8000 H         1 <0>         0.0596
     53 H10         1.8977   -2.7914   -1.8003 H         1 <0>         0.0757
     54 H11         1.0807   -3.9085    3.1823 H         1 <0>         0.0782
     55 H12         0.1523   -3.7376    1.7002 H         1 <0>         0.0812
     56 H13         2.2202   -0.8626   -0.4249 H         1 <0>         0.0731
     57 H14         3.5726   -3.4842   -0.2571 H         1 <0>         0.0511
     58 H15         3.1875   -3.5701    2.0864 H         1 <0>         0.0753
     59 H16         0.2435   -6.1003    2.3075 H         1 <0>         0.0427
     60 H17         4.2001   -1.1859    7.4289 H         1 <0>         0.0450
     61 H18         4.0203    0.2482    6.4220 H         1 <0>         0.0406
     62 H19         4.5693   -1.2752    5.6986 H         1 <0>         0.0274
     63 H20         2.8852   -3.3113    5.6789 H         1 <0>         0.0476
     64 H21         2.5335   -3.0185    7.3913 H         1 <0>         0.0170
     65 H22         1.2173   -3.0301    6.2104 H         1 <0>         0.0477
     66 H23         7.5381   -3.0861    4.3478 H         1 <0>         0.0814
     67 H24         7.9568   -2.5916    2.7208 H         1 <0>         0.0685
     68 H25        -0.9672    2.5721   -1.2575 H         1 <0>         0.1016
     69 H26         0.2183    1.6845   -2.2100 H         1 <0>         0.0660
     70 H27        -1.6130    0.3584   -3.2819 H         1 <0>         0.0512
     71 H28        -2.8171    1.2691   -2.3922 H         1 <0>         0.0454
     72 H29         0.9469   -1.1516    4.5828 H         1 <0>         0.0575
     73 H30         2.0032    0.2464    4.6399 H         1 <0>         0.0743
     74 H31        -0.2967    3.8737   -3.2572 H         1 <0>         0.0662
     75 H32        -2.0142    3.4573   -3.3438 H         1 <0>         0.0622
     76 H33        -3.7565   -0.9478   -1.3308 H         1 <0>         0.0321
     77 H34        -2.6144   -2.0048   -0.4820 H         1 <0>         0.0204
     78 H35         2.8203   -2.5449    3.6159 H         1 <0>         0.0749
     79 H36         6.6721   -0.5782    4.6707 H         1 <0>         0.0719
     80 H37         1.7968   -0.7138    6.8816 H         1 <0>         0.0609
     81 H38        -1.9472    0.3883   -0.2591 H         1 <0>         0.1063
     82 H39        -0.4141    1.3793   -7.0731 H         1 <0>         0.4792
     83 H40        -0.7658    2.8372   -7.9471 H         1 <0>         0.4819
     84 H41        -1.4289    4.9057   -5.0418 H         1 <0>         0.4802
     85 H42        -1.3529    4.8755   -6.7800 H         1 <0>         0.4826
     86 H43         0.1607   -0.8193   -1.9192 H         1 <0>         0.3101
     87 H44         4.4137   -0.0309    3.6864 H         1 <0>         0.3087
     88 H45        -0.5155    1.3889   -4.6505 H         1 <0>         0.4846
     89 H46        12.8645    0.7962    5.0769 H         1 <0>         0.4194
     90 H47         2.7873   -5.4145    2.8873 H         1 <0>         0.4036
     91 H48        -2.8906   -1.5183   -3.2383 H         1 <0>         0.4114
     92 H49         7.6442   -0.4526    2.2857 H         1 <0>         0.3944
@<TRIPOS>BOND
     1    1    3 ar
     2    1    5 ar
     3    2    4 ar
     4    2    5 ar
     5    3    6 ar
     6    4    6 ar
     7    5   21 1
     8    6   40 1
     9    7   15 1
    10    7   34 am
    11    7   37 2
    12    8   27 1
    13    8   31 am
    14    8   38 2
    15    9   28 1
    16    9   35 am
    17    9   39 2
    18   10   32 1
    19   10   33 1
    20   10   36 1
    21   11   12 1
    22   11   16 1
    23   12   18 1
    24   13   15 1
    25   13   16 1
    26   14   17 1
    27   14   18 1
    28   15   31 1
    29   16   17 1
    30   17   31 1
    31   18   41 1
    32   19   29 1
    33   20   29 1
    34   21   28 1
    35   22   23 1
    36   22   25 1
    37   23   30 1
    38   24   27 1
    39   24   29 1
    40   25   36 1
    41   26   30 1
    42   26   42 1
    43   27   35 1
    44   28   43 1
    45   30   34 1
    46    1   44 1
    47    2   45 1
    48    3   46 1
    49    4   47 1
    50   11   48 1
    51   11   49 1
    52   12   50 1
    53   12   51 1
    54   13   52 1
    55   13   53 1
    56   14   54 1
    57   14   55 1
    58   15   56 1
    59   16   57 1
    60   17   58 1
    61   18   59 1
    62   19   60 1
    63   19   61 1
    64   19   62 1
    65   20   63 1
    66   20   64 1
    67   20   65 1
    68   21   66 1
    69   21   67 1
    70   22   68 1
    71   22   69 1
    72   23   70 1
    73   23   71 1
    74   24   72 1
    75   24   73 1
    76   25   74 1
    77   25   75 1
    78   26   76 1
    79   26   77 1
    80   27   78 1
    81   28   79 1
    82   29   80 1
    83   30   81 1
    84   32   82 1
    85   32   83 1
    86   33   84 1
    87   33   85 1
    88   34   86 1
    89   35   87 1
    90   36   88 1
    91   40   89 1
    92   41   90 1
    93   42   91 1
    94   43   92 1
@<TRIPOS>MOLECULE
1a2c_ligand_94
   92    94     0     0     0
SMALL
USER_CHARGES

mmff94s_NoEstat = 110.30
@<TRIPOS>ATOM
      1 C1          9.9405   -0.9977    3.3373 C.ar      1 <0>        -0.0708
      2 C2          9.3910   -1.6914    5.5854 C.ar      1 <0>        -0.0872
      3 C3         11.1357   -0.4468    3.7995 C.ar      1 <0>        -0.2241
      4 C4         10.5862   -1.1405    6.0475 C.ar      1 <0>        -0.1600
      5 C5          9.0842   -1.6127    4.2364 C.ar      1 <0>        -0.1356
      6 C6         11.4586   -0.5182    5.1546 C.ar      1 <0>         0.1290
      7 C7          0.1755   -1.0766    0.1327 C.2       1 <0>         0.6664
      8 C8          2.3785   -0.9757    2.2764 C.2       1 <0>         0.6651
      9 C9          5.2968   -1.9145    3.7000 C.2       1 <0>         0.6454
     10 C10         0.3443    5.9186   -0.4394 C.cat     1 <0>         0.6349
     11 C11         2.4521   -5.3069   -0.2561 C.3       1 <0>        -0.0642
     12 C12         1.2413   -5.9691    0.3982 C.3       1 <0>        -0.0747
     13 C13         1.5734   -2.9393   -0.7647 C.3       1 <0>        -0.0873
     14 C14         1.0938   -4.1277    2.1072 C.3       1 <0>        -0.1371
     15 C15         1.5650   -1.6216    0.0133 C.3       1 <0>         0.0360
     16 C16         2.5597   -3.8106    0.0203 C.3       1 <0>        -0.0720
     17 C17         2.2934   -3.4012    1.4755 C.3       1 <0>         0.1201
     18 C18         1.1411   -5.6363    1.8853 C.3       1 <0>         0.1453
     19 C19         3.8896   -0.8379    6.4377 C.3       1 <0>        -0.0968
     20 C20         2.2599   -2.7349    6.3694 C.3       1 <0>        -0.0986
     21 C21         7.7906   -2.2097    3.7359 C.3       1 <0>        -0.0191
     22 C22        -0.6430    2.4326    0.6399 C.3       1 <0>        -0.1009
     23 C23        -1.2979    2.0260   -0.6854 C.3       1 <0>        -0.0942
     24 C24         1.9925   -0.8489    4.7298 C.3       1 <0>        -0.0988
     25 C25        -0.5996    3.9518    0.7888 C.3       1 <0>         0.1966
     26 C26        -2.1127    0.1273   -2.2253 C.3       1 <0>         0.1128
     27 C27         2.8496   -1.4560    3.6253 C.3       1 <0>         0.0786
     28 C28         6.6400   -1.1984    3.7670 C.3       1 <0>         0.0744
     29 C29         2.4383   -1.2292    6.1562 C.3       1 <0>        -0.0678
     30 C30        -1.4370    0.5062   -0.9051 C.3       1 <0>         0.1065
     31 N1          2.0322   -1.9586    1.3590 N.am      1 <0>        -0.4315
     32 N2          1.0795    6.4347   -1.5015 N.pl3     1 <0>        -0.8671
     33 N3         -0.2072    6.7924    0.4913 N.pl3     1 <0>        -0.8581
     34 N4         -0.1481   -0.1440   -0.8342 N.am      1 <0>        -0.5687
     35 N5          4.2184   -1.0331    3.6724 N.am      1 <0>        -0.5746
     36 N6          0.1533    4.5333   -0.2970 N.pl3     1 <0>        -0.7533
     37 O1         -0.5534   -1.4727    1.0347 O.2       1 <0>        -0.5843
     38 O2          2.3230    0.2335    2.0409 O.2       1 <0>        -0.6812
     39 O3          5.2019   -3.1398    3.6875 O.2       1 <0>        -0.5788
     40 O4         12.6257    0.0180    5.6053 O.3       1 <0>        -0.4938
     41 O5          2.2611   -6.1715    2.5852 O.3       1 <0>        -0.6030
     42 O6         -1.3491    0.6212   -3.3179 O.3       1 <0>        -0.5860
     43 O7          6.7453   -0.3444    2.6370 O.3       1 <0>        -0.6021
     44 H1          9.6976   -0.9371    2.2799 H         1 <0>         0.1412
     45 H2          8.7174   -2.1747    6.2883 H         1 <0>         0.1451
     46 H3         11.8111    0.0364    3.0990 H         1 <0>         0.1336
     47 H4         10.8326   -1.2001    7.1044 H         1 <0>         0.1567
     48 H5          3.3605   -5.7937    0.1218 H         1 <0>         0.0649
     49 H6          2.4319   -5.4897   -1.3370 H         1 <0>         0.0476
     50 H7          0.3241   -5.6545   -0.1129 H         1 <0>         0.0641
     51 H8          1.3294   -7.0545    0.2691 H         1 <0>         0.0484
     52 H9          0.5754   -3.3919   -0.8000 H         1 <0>         0.0596
     53 H10         1.8977   -2.7914   -1.8003 H         1 <0>         0.0757
     54 H11         1.0807   -3.9085    3.1823 H         1 <0>         0.0782
     55 H12         0.1523   -3.7376    1.7002 H         1 <0>         0.0812
     56 H13         2.2202   -0.8626   -0.4249 H         1 <0>         0.0731
     57 H14         3.5726   -3.4842   -0.2571 H         1 <0>         0.0511
     58 H15         3.1875   -3.5701    2.0864 H         1 <0>         0.0753
     59 H16         0.2435   -6.1003    2.3075 H         1 <0>         0.0427
     60 H17         4.2001   -1.1859    7.4289 H         1 <0>         0.0450
     61 H18         4.0203    0.2482    6.4220 H         1 <0>         0.0406
     62 H19         4.5693   -1.2752    5.6986 H         1 <0>         0.0274
     63 H20         2.8852   -3.3113    5.6789 H         1 <0>         0.0476
     64 H21         2.5335   -3.0185    7.3913 H         1 <0>         0.0170
     65 H22         1.2173   -3.0301    6.2104 H         1 <0>         0.0477
     66 H23         7.5381   -3.0861    4.3478 H         1 <0>         0.0814
     67 H24         7.9568   -2.5916    2.7208 H         1 <0>         0.0685
     68 H25        -1.1995    2.0063    1.4826 H         1 <0>         0.1016
     69 H26         0.3766    2.0329    0.6979 H         1 <0>         0.0660
     70 H27        -0.7150    2.4492   -1.5148 H         1 <0>         0.0512
     71 H28        -2.2909    2.4892   -0.7497 H         1 <0>         0.0454
     72 H29         0.9469   -1.1516    4.5828 H         1 <0>         0.0575
     73 H30         2.0032    0.2464    4.6399 H         1 <0>         0.0743
     74 H31        -0.1297    4.2271    1.7389 H         1 <0>         0.0662
     75 H32        -1.6126    4.3671    0.7838 H         1 <0>         0.0622
     76 H33        -3.1276    0.5322   -2.2969 H         1 <0>         0.0321
     77 H34        -2.1750   -0.9624   -2.3250 H         1 <0>         0.0204
     78 H35         2.8203   -2.5449    3.6159 H         1 <0>         0.0749
     79 H36         6.6721   -0.5782    4.6707 H         1 <0>         0.0719
     80 H37         1.7968   -0.7138    6.8816 H         1 <0>         0.0609
     81 H38        -2.0581    0.1260   -0.0837 H         1 <0>         0.1063
     82 H39         1.5025    5.8345   -2.2044 H         1 <0>         0.4792
     83 H40         1.2174    7.4376   -1.6029 H         1 <0>         0.4819
     84 H41        -0.7502    6.4489    1.2798 H         1 <0>         0.4802
     85 H42        -0.0827    7.7984    0.4073 H         1 <0>         0.4826
     86 H43         0.5534    0.0962   -1.5282 H         1 <0>         0.3101
     87 H44         4.4137   -0.0309    3.6864 H         1 <0>         0.3087
     88 H45         0.5822    3.9340   -1.0126 H         1 <0>         0.4846
     89 H46        12.8645    0.7962    5.0769 H         1 <0>         0.4194
     90 H47         2.7873   -5.4145    2.8873 H         1 <0>         0.4036
     91 H48        -1.5776    1.5595   -3.4176 H         1 <0>         0.4114
     92 H49         7.6442   -0.4526    2.2857 H         1 <0>         0.3944
@<TRIPOS>BOND
     1    1    3 ar
     2    1    5 ar
     3    2    4 ar
     4    2    5 ar
     5    3    6 ar
     6    4    6 ar
     7    5   21 1
     8    6   40 1
     9    7   15 1
    10    7   34 am
    11    7   37 2
    12    8   27 1
    13    8   31 am
    14    8   38 2
    15    9   28 1
    16    9   35 am
    17    9   39 2
    18   10   32 1
    19   10   33 1
    20   10   36 1
    21   11   12 1
    22   11   16 1
    23   12   18 1
    24   13   15 1
    25   13   16 1
    26   14   17 1
    27   14   18 1
    28   15   31 1
    29   16   17 1
    30   17   31 1
    31   18   41 1
    32   19   29 1
    33   20   29 1
    34   21   28 1
    35   22   23 1
    36   22   25 1
    37   23   30 1
    38   24   27 1
    39   24   29 1
    40   25   36 1
    41   26   30 1
    42   26   42 1
    43   27   35 1
    44   28   43 1
    45   30   34 1
    46    1   44 1
    47    2   45 1
    48    3   46 1
    49    4   47 1
    50   11   48 1
    51   11   49 1
    52   12   50 1
    53   12   51 1
    54   13   52 1
    55   13   53 1
    56   14   54 1
    57   14   55 1
    58   15   56 1
    59   16   57 1
    60   17   58 1
    61   18   59 1
    62   19   60 1
    63   19   61 1
    64   19   62 1
    65   20   63 1
    66   20   64 1
    67   20   65 1
    68   21   66 1
    69   21   67 1
    70   22   68 1
    71   22   69 1
    72   23   70 1
    73   23   71 1
    74   24   72 1
    75   24   73 1
    76   25   74 1
    77   25   75 1
    78   26   76 1
    79   26   77 1
    80   27   78 1
    81   28   79 1
    82   29   80 1
    83   30   81 1
    84   32   82 1
    85   32   83 1
    86   33   84 1
    87   33   85 1
    88   34   86 1
    89   35   87 1
    90   36   88 1
    91   40   89 1
    92   41   90 1
    93   42   91 1
    94   43   92 1
@<TRIPOS>MOLECULE
1a2c_ligand_95
   92    94     0     0     0
SMALL
USER_CHARGES

mmff94s_NoEstat = 110.30
@<TRIPOS>ATOM
      1 C1          8.3103   -1.0475    6.6490 C.ar      1 <0>        -0.0708
      2 C2          6.7594   -2.8998    6.6321 C.ar      1 <0>        -0.0872
      3 C3          8.2150   -0.9804    8.0390 C.ar      1 <0>        -0.2241
      4 C4          6.6640   -2.8328    8.0220 C.ar      1 <0>        -0.1600
      5 C5          7.5813   -2.0063    5.9642 C.ar      1 <0>        -0.1356
      6 C6          7.3919   -1.8731    8.7255 C.ar      1 <0>         0.1290
      7 C7          0.1755   -1.0766    0.1327 C.2       1 <0>         0.6664
      8 C8          2.3785   -0.9757    2.2764 C.2       1 <0>         0.6651
      9 C9          5.2968   -1.9145    3.7000 C.2       1 <0>         0.6454
     10 C10        -1.2861    1.9242    4.3304 C.cat     1 <0>         0.6349
     11 C11         2.4521   -5.3069   -0.2561 C.3       1 <0>        -0.0642
     12 C12         1.2413   -5.9691    0.3982 C.3       1 <0>        -0.0747
     13 C13         1.5734   -2.9393   -0.7647 C.3       1 <0>        -0.0873
     14 C14         1.0938   -4.1277    2.1072 C.3       1 <0>        -0.1371
     15 C15         1.5650   -1.6216    0.0133 C.3       1 <0>         0.0360
     16 C16         2.5597   -3.8106    0.0203 C.3       1 <0>        -0.0720
     17 C17         2.2934   -3.4012    1.4755 C.3       1 <0>         0.1201
     18 C18         1.1411   -5.6363    1.8853 C.3       1 <0>         0.1453
     19 C19         3.8896   -0.8379    6.4377 C.3       1 <0>        -0.0968
     20 C20         2.2599   -2.7349    6.3694 C.3       1 <0>        -0.0986
     21 C21         7.6850   -2.0794    4.4595 C.3       1 <0>        -0.0191
     22 C22        -0.6430    2.4326    0.6399 C.3       1 <0>        -0.1009
     23 C23        -1.2979    2.0260   -0.6854 C.3       1 <0>        -0.0942
     24 C24         1.9925   -0.8489    4.7298 C.3       1 <0>        -0.0988
     25 C25        -1.4152    1.8692    1.8307 C.3       1 <0>         0.1966
     26 C26        -2.1127    0.1273   -2.2253 C.3       1 <0>         0.1128
     27 C27         2.8496   -1.4560    3.6253 C.3       1 <0>         0.0786
     28 C28         6.6400   -1.1984    3.7670 C.3       1 <0>         0.0744
     29 C29         2.4383   -1.2292    6.1562 C.3       1 <0>        -0.0678
     30 C30        -1.4370    0.5062   -0.9051 C.3       1 <0>         0.1065
     31 N1          2.0322   -1.9586    1.3590 N.am      1 <0>        -0.4315
     32 N2         -0.6437    2.3351    5.4937 N.pl3     1 <0>        -0.8671
     33 N3         -2.4412    1.1561    4.4289 N.pl3     1 <0>        -0.8581
     34 N4         -0.1481   -0.1440   -0.8342 N.am      1 <0>        -0.5687
     35 N5          4.2184   -1.0331    3.6724 N.am      1 <0>        -0.5746
     36 N6         -0.7846    2.2739    3.0647 N.pl3     1 <0>        -0.7533
     37 O1         -0.5534   -1.4727    1.0347 O.2       1 <0>        -0.5843
     38 O2          2.3230    0.2335    2.0409 O.2       1 <0>        -0.6812
     39 O3          5.2019   -3.1398    3.6875 O.2       1 <0>        -0.5788
     40 O4          7.3001   -1.8086   10.0820 O.3       1 <0>        -0.4938
     41 O5          2.2611   -6.1715    2.5852 O.3       1 <0>        -0.6030
     42 O6         -2.2112   -1.2870   -2.3289 O.3       1 <0>        -0.5860
     43 O7          7.0680   -0.9312    2.4393 O.3       1 <0>        -0.6021
     44 H1          8.9541   -0.3478    6.1229 H         1 <0>         0.1412
     45 H2          6.1888   -3.6511    6.0922 H         1 <0>         0.1451
     46 H3          8.7845   -0.2308    8.5812 H         1 <0>         0.1336
     47 H4          6.0217   -3.5316    8.5514 H         1 <0>         0.1567
     48 H5          3.3605   -5.7937    0.1218 H         1 <0>         0.0649
     49 H6          2.4319   -5.4897   -1.3370 H         1 <0>         0.0476
     50 H7          0.3241   -5.6545   -0.1129 H         1 <0>         0.0641
     51 H8          1.3294   -7.0545    0.2691 H         1 <0>         0.0484
     52 H9          0.5754   -3.3919   -0.8000 H         1 <0>         0.0596
     53 H10         1.8977   -2.7914   -1.8003 H         1 <0>         0.0757
     54 H11         1.0807   -3.9085    3.1823 H         1 <0>         0.0782
     55 H12         0.1523   -3.7376    1.7002 H         1 <0>         0.0812
     56 H13         2.2202   -0.8626   -0.4249 H         1 <0>         0.0731
     57 H14         3.5726   -3.4842   -0.2571 H         1 <0>         0.0511
     58 H15         3.1875   -3.5701    2.0864 H         1 <0>         0.0753
     59 H16         0.2435   -6.1003    2.3075 H         1 <0>         0.0427
     60 H17         4.2001   -1.1859    7.4289 H         1 <0>         0.0450
     61 H18         4.0203    0.2482    6.4220 H         1 <0>         0.0406
     62 H19         4.5693   -1.2752    5.6986 H         1 <0>         0.0274
     63 H20         2.8852   -3.3113    5.6789 H         1 <0>         0.0476
     64 H21         2.5335   -3.0185    7.3913 H         1 <0>         0.0170
     65 H22         1.2173   -3.0301    6.2104 H         1 <0>         0.0477
     66 H23         7.5676   -3.1238    4.1408 H         1 <0>         0.0814
     67 H24         8.7032   -1.7908    4.1693 H         1 <0>         0.0685
     68 H25         0.3900    2.0675    0.6783 H         1 <0>         0.1016
     69 H26        -0.5969    3.5252    0.7212 H         1 <0>         0.0660
     70 H27        -0.7150    2.4492   -1.5148 H         1 <0>         0.0512
     71 H28        -2.2909    2.4892   -0.7497 H         1 <0>         0.0454
     72 H29         0.9469   -1.1516    4.5828 H         1 <0>         0.0575
     73 H30         2.0032    0.2464    4.6399 H         1 <0>         0.0743
     74 H31        -1.4416    0.7754    1.7834 H         1 <0>         0.0662
     75 H32        -2.4491    2.2294    1.8230 H         1 <0>         0.0622
     76 H33        -1.5587    0.5035   -3.0917 H         1 <0>         0.0321
     77 H34        -3.1279    0.5382   -2.2680 H         1 <0>         0.0204
     78 H35         2.8203   -2.5449    3.6159 H         1 <0>         0.0749
     79 H36         6.5115   -0.2411    4.2859 H         1 <0>         0.0719
     80 H37         1.7968   -0.7138    6.8816 H         1 <0>         0.0609
     81 H38        -2.0581    0.1260   -0.0837 H         1 <0>         0.1063
     82 H39         0.2039    2.8957    5.4704 H         1 <0>         0.4792
     83 H40        -1.0075    2.0807    6.4092 H         1 <0>         0.4819
     84 H41        -2.9358    0.8388    3.5987 H         1 <0>         0.4802
     85 H42        -2.8225    0.8924    5.3343 H         1 <0>         0.4826
     86 H43         0.5534    0.0962   -1.5282 H         1 <0>         0.3101
     87 H44         4.4137   -0.0309    3.6864 H         1 <0>         0.3087
     88 H45         0.0710    2.8422    3.0499 H         1 <0>         0.4846
     89 H46         7.3998   -0.8913   10.3827 H         1 <0>         0.4194
     90 H47         2.7873   -5.4145    2.8873 H         1 <0>         0.4036
     91 H48        -1.3448   -1.6067   -2.6281 H         1 <0>         0.4114
     92 H49         8.0124   -1.1538    2.3984 H         1 <0>         0.3944
@<TRIPOS>BOND
     1    1    3 ar
     2    1    5 ar
     3    2    4 ar
     4    2    5 ar
     5    3    6 ar
     6    4    6 ar
     7    5   21 1
     8    6   40 1
     9    7   15 1
    10    7   34 am
    11    7   37 2
    12    8   27 1
    13    8   31 am
    14    8   38 2
    15    9   28 1
    16    9   35 am
    17    9   39 2
    18   10   32 1
    19   10   33 1
    20   10   36 1
    21   11   12 1
    22   11   16 1
    23   12   18 1
    24   13   15 1
    25   13   16 1
    26   14   17 1
    27   14   18 1
    28   15   31 1
    29   16   17 1
    30   17   31 1
    31   18   41 1
    32   19   29 1
    33   20   29 1
    34   21   28 1
    35   22   23 1
    36   22   25 1
    37   23   30 1
    38   24   27 1
    39   24   29 1
    40   25   36 1
    41   26   30 1
    42   26   42 1
    43   27   35 1
    44   28   43 1
    45   30   34 1
    46    1   44 1
    47    2   45 1
    48    3   46 1
    49    4   47 1
    50   11   48 1
    51   11   49 1
    52   12   50 1
    53   12   51 1
    54   13   52 1
    55   13   53 1
    56   14   54 1
    57   14   55 1
    58   15   56 1
    59   16   57 1
    60   17   58 1
    61   18   59 1
    62   19   60 1
    63   19   61 1
    64   19   62 1
    65   20   63 1
    66   20   64 1
    67   20   65 1
    68   21   66 1
    69   21   67 1
    70   22   68 1
    71   22   69 1
    72   23   70 1
    73   23   71 1
    74   24   72 1
    75   24   73 1
    76   25   74 1
    77   25   75 1
    78   26   76 1
    79   26   77 1
    80   27   78 1
    81   28   79 1
    82   29   80 1
    83   30   81 1
    84   32   82 1
    85   32   83 1
    86   33   84 1
    87   33   85 1
    88   34   86 1
    89   35   87 1
    90   36   88 1
    91   40   89 1
    92   41   90 1
    93   42   91 1
    94   43   92 1
@<TRIPOS>MOLECULE
1a2c_ligand_96
   92    94     0     0     0
SMALL
USER_CHARGES

mmff94s_NoEstat = 110.32
@<TRIPOS>ATOM
      1 C1          8.3103   -1.0475    6.6490 C.ar      1 <0>        -0.0708
      2 C2          6.7594   -2.8998    6.6321 C.ar      1 <0>        -0.0872
      3 C3          8.2150   -0.9804    8.0390 C.ar      1 <0>        -0.2241
      4 C4          6.6640   -2.8328    8.0220 C.ar      1 <0>        -0.1600
      5 C5          7.5813   -2.0063    5.9642 C.ar      1 <0>        -0.1356
      6 C6          7.3919   -1.8731    8.7255 C.ar      1 <0>         0.1290
      7 C7          0.1755   -1.0766    0.1327 C.2       1 <0>         0.6664
      8 C8          2.3785   -0.9757    2.2764 C.2       1 <0>         0.6651
      9 C9          5.2968   -1.9145    3.7000 C.2       1 <0>         0.6454
     10 C10        -0.9027    3.0370   -5.8579 C.cat     1 <0>         0.6349
     11 C11         2.4521   -5.3069   -0.2561 C.3       1 <0>        -0.0642
     12 C12         1.2413   -5.9691    0.3982 C.3       1 <0>        -0.0747
     13 C13         1.5734   -2.9393   -0.7647 C.3       1 <0>        -0.0873
     14 C14         1.0938   -4.1277    2.1072 C.3       1 <0>        -0.1371
     15 C15         1.5650   -1.6216    0.0133 C.3       1 <0>         0.0360
     16 C16         2.5597   -3.8106    0.0203 C.3       1 <0>        -0.0720
     17 C17         2.2934   -3.4012    1.4755 C.3       1 <0>         0.1201
     18 C18         1.1411   -5.6363    1.8853 C.3       1 <0>         0.1453
     19 C19         3.8896   -0.8379    6.4377 C.3       1 <0>        -0.0968
     20 C20         2.2599   -2.7349    6.3694 C.3       1 <0>        -0.0986
     21 C21         7.6850   -2.0794    4.4595 C.3       1 <0>        -0.0191
     22 C22        -0.8155    2.0502   -2.2095 C.3       1 <0>        -0.1009
     23 C23        -1.7941    0.8762   -2.3301 C.3       1 <0>        -0.0942
     24 C24         1.9925   -0.8489    4.7298 C.3       1 <0>        -0.0988
     25 C25        -1.0015    3.0414   -3.3563 C.3       1 <0>         0.1966
     26 C26        -2.7214   -1.3050   -1.3187 C.3       1 <0>         0.1128
     27 C27         2.8496   -1.4560    3.6253 C.3       1 <0>         0.0786
     28 C28         6.6400   -1.1984    3.7670 C.3       1 <0>         0.0744
     29 C29         2.4383   -1.2292    6.1562 C.3       1 <0>        -0.0678
     30 C30        -1.7203   -0.1547   -1.1858 C.3       1 <0>         0.1065
     31 N1          2.0322   -1.9586    1.3590 N.am      1 <0>        -0.4315
     32 N2         -0.6764    2.3611   -7.0524 N.pl3     1 <0>        -0.8671
     33 N3         -1.2564    4.3814   -5.8961 N.pl3     1 <0>        -0.8581
     34 N4         -0.3878   -0.7030   -1.0725 N.am      1 <0>        -0.5687
     35 N5          4.2184   -1.0331    3.6724 N.am      1 <0>        -0.5746
     36 N6         -0.7789    2.3814   -4.6207 N.pl3     1 <0>        -0.7533
     37 O1         -0.3509   -1.0007    1.2367 O.2       1 <0>        -0.5843
     38 O2          2.3230    0.2335    2.0409 O.2       1 <0>        -0.6812
     39 O3          5.2019   -3.1398    3.6875 O.2       1 <0>        -0.5788
     40 O4          7.3001   -1.8086   10.0820 O.3       1 <0>        -0.4938
     41 O5          2.2611   -6.1715    2.5852 O.3       1 <0>        -0.6030
     42 O6         -2.4752   -2.0231   -2.5206 O.3       1 <0>        -0.5860
     43 O7          7.0680   -0.9312    2.4393 O.3       1 <0>        -0.6021
     44 H1          8.9541   -0.3478    6.1229 H         1 <0>         0.1412
     45 H2          6.1888   -3.6511    6.0922 H         1 <0>         0.1451
     46 H3          8.7845   -0.2308    8.5812 H         1 <0>         0.1336
     47 H4          6.0217   -3.5316    8.5514 H         1 <0>         0.1567
     48 H5          3.3605   -5.7937    0.1218 H         1 <0>         0.0649
     49 H6          2.4319   -5.4897   -1.3370 H         1 <0>         0.0476
     50 H7          0.3241   -5.6545   -0.1129 H         1 <0>         0.0641
     51 H8          1.3294   -7.0545    0.2691 H         1 <0>         0.0484
     52 H9          0.5754   -3.3919   -0.8000 H         1 <0>         0.0596
     53 H10         1.8977   -2.7914   -1.8003 H         1 <0>         0.0757
     54 H11         1.0807   -3.9085    3.1823 H         1 <0>         0.0782
     55 H12         0.1523   -3.7376    1.7002 H         1 <0>         0.0812
     56 H13         2.2202   -0.8626   -0.4249 H         1 <0>         0.0731
     57 H14         3.5726   -3.4842   -0.2571 H         1 <0>         0.0511
     58 H15         3.1875   -3.5701    2.0864 H         1 <0>         0.0753
     59 H16         0.2435   -6.1003    2.3075 H         1 <0>         0.0427
     60 H17         4.2001   -1.1859    7.4289 H         1 <0>         0.0450
     61 H18         4.0203    0.2482    6.4220 H         1 <0>         0.0406
     62 H19         4.5693   -1.2752    5.6986 H         1 <0>         0.0274
     63 H20         2.8852   -3.3113    5.6789 H         1 <0>         0.0476
     64 H21         2.5335   -3.0185    7.3913 H         1 <0>         0.0170
     65 H22         1.2173   -3.0301    6.2104 H         1 <0>         0.0477
     66 H23         7.5676   -3.1238    4.1408 H         1 <0>         0.0814
     67 H24         8.7032   -1.7908    4.1693 H         1 <0>         0.0685
     68 H25        -0.9672    2.5721   -1.2575 H         1 <0>         0.1016
     69 H26         0.2183    1.6845   -2.2100 H         1 <0>         0.0660
     70 H27        -1.6130    0.3584   -3.2819 H         1 <0>         0.0512
     71 H28        -2.8171    1.2691   -2.3922 H         1 <0>         0.0454
     72 H29         0.9469   -1.1516    4.5828 H         1 <0>         0.0575
     73 H30         2.0032    0.2464    4.6399 H         1 <0>         0.0743
     74 H31        -0.2967    3.8737   -3.2572 H         1 <0>         0.0662
     75 H32        -2.0142    3.4573   -3.3438 H         1 <0>         0.0622
     76 H33        -3.7565   -0.9478   -1.3308 H         1 <0>         0.0321
     77 H34        -2.6144   -2.0048   -0.4820 H         1 <0>         0.0204
     78 H35         2.8203   -2.5449    3.6159 H         1 <0>         0.0749
     79 H36         6.5115   -0.2411    4.2859 H         1 <0>         0.0719
     80 H37         1.7968   -0.7138    6.8816 H         1 <0>         0.0609
     81 H38        -1.9472    0.3883   -0.2591 H         1 <0>         0.1063
     82 H39        -0.4141    1.3793   -7.0731 H         1 <0>         0.4792
     83 H40        -0.7658    2.8372   -7.9471 H         1 <0>         0.4819
     84 H41        -1.4289    4.9057   -5.0418 H         1 <0>         0.4802
     85 H42        -1.3529    4.8755   -6.7800 H         1 <0>         0.4826
     86 H43         0.1607   -0.8193   -1.9192 H         1 <0>         0.3101
     87 H44         4.4137   -0.0309    3.6864 H         1 <0>         0.3087
     88 H45        -0.5155    1.3889   -4.6505 H         1 <0>         0.4846
     89 H46         7.3998   -0.8913   10.3827 H         1 <0>         0.4194
     90 H47         2.7873   -5.4145    2.8873 H         1 <0>         0.4036
     91 H48        -2.8906   -1.5183   -3.2383 H         1 <0>         0.4114
     92 H49         8.0124   -1.1538    2.3984 H         1 <0>         0.3944
@<TRIPOS>BOND
     1    1    3 ar
     2    1    5 ar
     3    2    4 ar
     4    2    5 ar
     5    3    6 ar
     6    4    6 ar
     7    5   21 1
     8    6   40 1
     9    7   15 1
    10    7   34 am
    11    7   37 2
    12    8   27 1
    13    8   31 am
    14    8   38 2
    15    9   28 1
    16    9   35 am
    17    9   39 2
    18   10   32 1
    19   10   33 1
    20   10   36 1
    21   11   12 1
    22   11   16 1
    23   12   18 1
    24   13   15 1
    25   13   16 1
    26   14   17 1
    27   14   18 1
    28   15   31 1
    29   16   17 1
    30   17   31 1
    31   18   41 1
    32   19   29 1
    33   20   29 1
    34   21   28 1
    35   22   23 1
    36   22   25 1
    37   23   30 1
    38   24   27 1
    39   24   29 1
    40   25   36 1
    41   26   30 1
    42   26   42 1
    43   27   35 1
    44   28   43 1
    45   30   34 1
    46    1   44 1
    47    2   45 1
    48    3   46 1
    49    4   47 1
    50   11   48 1
    51   11   49 1
    52   12   50 1
    53   12   51 1
    54   13   52 1
    55   13   53 1
    56   14   54 1
    57   14   55 1
    58   15   56 1
    59   16   57 1
    60   17   58 1
    61   18   59 1
    62   19   60 1
    63   19   61 1
    64   19   62 1
    65   20   63 1
    66   20   64 1
    67   20   65 1
    68   21   66 1
    69   21   67 1
    70   22   68 1
    71   22   69 1
    72   23   70 1
    73   23   71 1
    74   24   72 1
    75   24   73 1
    76   25   74 1
    77   25   75 1
    78   26   76 1
    79   26   77 1
    80   27   78 1
    81   28   79 1
    82   29   80 1
    83   30   81 1
    84   32   82 1
    85   32   83 1
    86   33   84 1
    87   33   85 1
    88   34   86 1
    89   35   87 1
    90   36   88 1
    91   40   89 1
    92   41   90 1
    93   42   91 1
    94   43   92 1
@<TRIPOS>MOLECULE
1a2c_ligand_97
   92    94     0     0     0
SMALL
USER_CHARGES

mmff94s_NoEstat = 110.32
@<TRIPOS>ATOM
      1 C1          9.9405   -0.9977    3.3373 C.ar      1 <0>        -0.0708
      2 C2          9.3910   -1.6914    5.5854 C.ar      1 <0>        -0.0872
      3 C3         11.1357   -0.4468    3.7995 C.ar      1 <0>        -0.2241
      4 C4         10.5862   -1.1405    6.0475 C.ar      1 <0>        -0.1600
      5 C5          9.0842   -1.6127    4.2364 C.ar      1 <0>        -0.1356
      6 C6         11.4586   -0.5182    5.1546 C.ar      1 <0>         0.1290
      7 C7          0.1755   -1.0766    0.1327 C.2       1 <0>         0.6664
      8 C8          2.3785   -0.9757    2.2764 C.2       1 <0>         0.6651
      9 C9          5.2968   -1.9145    3.7000 C.2       1 <0>         0.6454
     10 C10        -2.6284    5.4301   -1.9251 C.cat     1 <0>         0.6349
     11 C11         2.4521   -5.3069   -0.2561 C.3       1 <0>        -0.0642
     12 C12         1.2413   -5.9691    0.3982 C.3       1 <0>        -0.0747
     13 C13         1.5734   -2.9393   -0.7647 C.3       1 <0>        -0.0873
     14 C14         1.0938   -4.1277    2.1072 C.3       1 <0>        -0.1371
     15 C15         1.5650   -1.6216    0.0133 C.3       1 <0>         0.0360
     16 C16         2.5597   -3.8106    0.0203 C.3       1 <0>        -0.0720
     17 C17         2.2934   -3.4012    1.4755 C.3       1 <0>         0.1201
     18 C18         1.1411   -5.6363    1.8853 C.3       1 <0>         0.1453
     19 C19         3.8896   -0.8379    6.4377 C.3       1 <0>        -0.0968
     20 C20         2.2599   -2.7349    6.3694 C.3       1 <0>        -0.0986
     21 C21         7.7906   -2.2097    3.7359 C.3       1 <0>        -0.0191
     22 C22        -0.8392    2.2664   -0.8852 C.3       1 <0>        -0.1009
     23 C23        -1.6754    1.2905   -1.7214 C.3       1 <0>        -0.0942
     24 C24         1.9925   -0.8489    4.7298 C.3       1 <0>        -0.0988
     25 C25        -0.9003    3.6784   -1.4634 C.3       1 <0>         0.1966
     26 C26        -2.5783   -1.1036   -2.0263 C.3       1 <0>         0.1128
     27 C27         2.8496   -1.4560    3.6253 C.3       1 <0>         0.0786
     28 C28         6.6400   -1.1984    3.7670 C.3       1 <0>         0.0744
     29 C29         2.4383   -1.2292    6.1562 C.3       1 <0>        -0.0678
     30 C30        -1.7203   -0.1547   -1.1858 C.3       1 <0>         0.1065
     31 N1          2.0322   -1.9586    1.3590 N.am      1 <0>        -0.4315
     32 N2         -3.9568    5.8427   -1.9149 N.pl3     1 <0>        -0.8671
     33 N3         -1.6515    6.3017   -2.3941 N.pl3     1 <0>        -0.8581
     34 N4         -0.3878   -0.7030   -1.0725 N.am      1 <0>        -0.5687
     35 N5          4.2184   -1.0331    3.6724 N.am      1 <0>        -0.5746
     36 N6         -2.2644    4.1511   -1.4699 N.pl3     1 <0>        -0.7533
     37 O1         -0.3509   -1.0007    1.2367 O.2       1 <0>        -0.5843
     38 O2          2.3230    0.2335    2.0409 O.2       1 <0>        -0.6812
     39 O3          5.2019   -3.1398    3.6875 O.2       1 <0>        -0.5788
     40 O4         12.6257    0.0180    5.6053 O.3       1 <0>        -0.4938
     41 O5          2.2611   -6.1715    2.5852 O.3       1 <0>        -0.6030
     42 O6         -2.5724   -2.4015   -1.4465 O.3       1 <0>        -0.5860
     43 O7          6.7453   -0.3444    2.6370 O.3       1 <0>        -0.6021
     44 H1          9.6976   -0.9371    2.2799 H         1 <0>         0.1412
     45 H2          8.7174   -2.1747    6.2883 H         1 <0>         0.1451
     46 H3         11.8111    0.0364    3.0990 H         1 <0>         0.1336
     47 H4         10.8326   -1.2001    7.1044 H         1 <0>         0.1567
     48 H5          3.3605   -5.7937    0.1218 H         1 <0>         0.0649
     49 H6          2.4319   -5.4897   -1.3370 H         1 <0>         0.0476
     50 H7          0.3241   -5.6545   -0.1129 H         1 <0>         0.0641
     51 H8          1.3294   -7.0545    0.2691 H         1 <0>         0.0484
     52 H9          0.5754   -3.3919   -0.8000 H         1 <0>         0.0596
     53 H10         1.8977   -2.7914   -1.8003 H         1 <0>         0.0757
     54 H11         1.0807   -3.9085    3.1823 H         1 <0>         0.0782
     55 H12         0.1523   -3.7376    1.7002 H         1 <0>         0.0812
     56 H13         2.2202   -0.8626   -0.4249 H         1 <0>         0.0731
     57 H14         3.5726   -3.4842   -0.2571 H         1 <0>         0.0511
     58 H15         3.1875   -3.5701    2.0864 H         1 <0>         0.0753
     59 H16         0.2435   -6.1003    2.3075 H         1 <0>         0.0427
     60 H17         4.2001   -1.1859    7.4289 H         1 <0>         0.0450
     61 H18         4.0203    0.2482    6.4220 H         1 <0>         0.0406
     62 H19         4.5693   -1.2752    5.6986 H         1 <0>         0.0274
     63 H20         2.8852   -3.3113    5.6789 H         1 <0>         0.0476
     64 H21         2.5335   -3.0185    7.3913 H         1 <0>         0.0170
     65 H22         1.2173   -3.0301    6.2104 H         1 <0>         0.0477
     66 H23         7.5381   -3.0861    4.3478 H         1 <0>         0.0814
     67 H24         7.9568   -2.5916    2.7208 H         1 <0>         0.0685
     68 H25        -1.2041    2.2870    0.1483 H         1 <0>         0.1016
     69 H26         0.2054    1.9349   -0.8467 H         1 <0>         0.0660
     70 H27        -1.2820    1.2733   -2.7469 H         1 <0>         0.0512
     71 H28        -2.7004    1.6751   -1.7996 H         1 <0>         0.0454
     72 H29         0.9469   -1.1516    4.5828 H         1 <0>         0.0575
     73 H30         2.0032    0.2464    4.6399 H         1 <0>         0.0743
     74 H31        -0.5130    3.6867   -2.4878 H         1 <0>         0.0662
     75 H32        -0.2876    4.3637   -0.8686 H         1 <0>         0.0622
     76 H33        -2.2157   -1.1795   -3.0567 H         1 <0>         0.0321
     77 H34        -3.6169   -0.7550   -2.0576 H         1 <0>         0.0204
     78 H35         2.8203   -2.5449    3.6159 H         1 <0>         0.0749
     79 H36         6.6721   -0.5782    4.6707 H         1 <0>         0.0719
     80 H37         1.7968   -0.7138    6.8816 H         1 <0>         0.0609
     81 H38        -2.1562   -0.1031   -0.1797 H         1 <0>         0.1063
     82 H39        -4.7045    5.2392   -1.5832 H         1 <0>         0.4792
     83 H40        -4.2189    6.7685   -2.2453 H         1 <0>         0.4819
     84 H41        -0.6709    6.0323   -2.4155 H         1 <0>         0.4802
     85 H42        -1.8920    7.2322   -2.7271 H         1 <0>         0.4826
     86 H43         0.1607   -0.8193   -1.9192 H         1 <0>         0.3101
     87 H44         4.4137   -0.0309    3.6864 H         1 <0>         0.3087
     88 H45        -3.0256    3.5484   -1.1344 H         1 <0>         0.4846
     89 H46        12.8645    0.7962    5.0769 H         1 <0>         0.4194
     90 H47         2.7873   -5.4145    2.8873 H         1 <0>         0.4036
     91 H48        -1.7464   -2.8287   -1.7250 H         1 <0>         0.4114
     92 H49         7.6442   -0.4526    2.2857 H         1 <0>         0.3944
@<TRIPOS>BOND
     1    1    3 ar
     2    1    5 ar
     3    2    4 ar
     4    2    5 ar
     5    3    6 ar
     6    4    6 ar
     7    5   21 1
     8    6   40 1
     9    7   15 1
    10    7   34 am
    11    7   37 2
    12    8   27 1
    13    8   31 am
    14    8   38 2
    15    9   28 1
    16    9   35 am
    17    9   39 2
    18   10   32 1
    19   10   33 1
    20   10   36 1
    21   11   12 1
    22   11   16 1
    23   12   18 1
    24   13   15 1
    25   13   16 1
    26   14   17 1
    27   14   18 1
    28   15   31 1
    29   16   17 1
    30   17   31 1
    31   18   41 1
    32   19   29 1
    33   20   29 1
    34   21   28 1
    35   22   23 1
    36   22   25 1
    37   23   30 1
    38   24   27 1
    39   24   29 1
    40   25   36 1
    41   26   30 1
    42   26   42 1
    43   27   35 1
    44   28   43 1
    45   30   34 1
    46    1   44 1
    47    2   45 1
    48    3   46 1
    49    4   47 1
    50   11   48 1
    51   11   49 1
    52   12   50 1
    53   12   51 1
    54   13   52 1
    55   13   53 1
    56   14   54 1
    57   14   55 1
    58   15   56 1
    59   16   57 1
    60   17   58 1
    61   18   59 1
    62   19   60 1
    63   19   61 1
    64   19   62 1
    65   20   63 1
    66   20   64 1
    67   20   65 1
    68   21   66 1
    69   21   67 1
    70   22   68 1
    71   22   69 1
    72   23   70 1
    73   23   71 1
    74   24   72 1
    75   24   73 1
    76   25   74 1
    77   25   75 1
    78   26   76 1
    79   26   77 1
    80   27   78 1
    81   28   79 1
    82   29   80 1
    83   30   81 1
    84   32   82 1
    85   32   83 1
    86   33   84 1
    87   33   85 1
    88   34   86 1
    89   35   87 1
    90   36   88 1
    91   40   89 1
    92   41   90 1
    93   42   91 1
    94   43   92 1
@<TRIPOS>MOLECULE
1a2c_ligand_98
   92    94     0     0     0
SMALL
USER_CHARGES

mmff94s_NoEstat = 110.45
@<TRIPOS>ATOM
      1 C1          8.3103   -1.0475    6.6490 C.ar      1 <0>        -0.0708
      2 C2          6.7594   -2.8998    6.6321 C.ar      1 <0>        -0.0872
      3 C3          8.2150   -0.9804    8.0390 C.ar      1 <0>        -0.2241
      4 C4          6.6640   -2.8328    8.0220 C.ar      1 <0>        -0.1600
      5 C5          7.5813   -2.0063    5.9642 C.ar      1 <0>        -0.1356
      6 C6          7.3919   -1.8731    8.7255 C.ar      1 <0>         0.1290
      7 C7          0.1755   -1.0766    0.1327 C.2       1 <0>         0.6664
      8 C8          2.3785   -0.9757    2.2764 C.2       1 <0>         0.6651
      9 C9          5.2968   -1.9145    3.7000 C.2       1 <0>         0.6454
     10 C10         0.2448    5.4070   -3.3211 C.cat     1 <0>         0.6349
     11 C11         2.4521   -5.3069   -0.2561 C.3       1 <0>        -0.0642
     12 C12         1.2413   -5.9691    0.3982 C.3       1 <0>        -0.0747
     13 C13         1.5734   -2.9393   -0.7647 C.3       1 <0>        -0.0873
     14 C14         1.0938   -4.1277    2.1072 C.3       1 <0>        -0.1371
     15 C15         1.5650   -1.6216    0.0133 C.3       1 <0>         0.0360
     16 C16         2.5597   -3.8106    0.0203 C.3       1 <0>        -0.0720
     17 C17         2.2934   -3.4012    1.4755 C.3       1 <0>         0.1201
     18 C18         1.1411   -5.6363    1.8853 C.3       1 <0>         0.1453
     19 C19         3.8896   -0.8379    6.4377 C.3       1 <0>        -0.0968
     20 C20         2.2599   -2.7349    6.3694 C.3       1 <0>        -0.0986
     21 C21         7.6850   -2.0794    4.4595 C.3       1 <0>        -0.0191
     22 C22        -0.3644    2.8488   -0.6052 C.3       1 <0>        -0.1009
     23 C23        -1.2954    1.9500   -1.4274 C.3       1 <0>        -0.0942
     24 C24         1.9925   -0.8489    4.7298 C.3       1 <0>        -0.0988
     25 C25        -0.3322    4.2683   -1.1675 C.3       1 <0>         0.1966
     26 C26        -2.3878   -0.3640   -1.7308 C.3       1 <0>         0.1128
     27 C27         2.8496   -1.4560    3.6253 C.3       1 <0>         0.0786
     28 C28         6.6400   -1.1984    3.7670 C.3       1 <0>         0.0744
     29 C29         2.4383   -1.2292    6.1562 C.3       1 <0>        -0.0678
     30 C30        -1.4370    0.5062   -0.9051 C.3       1 <0>         0.1065
     31 N1          2.0322   -1.9586    1.3590 N.am      1 <0>        -0.4315
     32 N2          0.6997    5.3401   -4.6340 N.pl3     1 <0>        -0.8671
     33 N3         -0.1022    6.6429   -2.7862 N.pl3     1 <0>        -0.8581
     34 N4         -0.1481   -0.1440   -0.8342 N.am      1 <0>        -0.5687
     35 N5          4.2184   -1.0331    3.6724 N.am      1 <0>        -0.5746
     36 N6          0.1324    4.2478   -2.5342 N.pl3     1 <0>        -0.7533
     37 O1         -0.5534   -1.4727    1.0347 O.2       1 <0>        -0.5843
     38 O2          2.3230    0.2335    2.0409 O.2       1 <0>        -0.6812
     39 O3          5.2019   -3.1398    3.6875 O.2       1 <0>        -0.5788
     40 O4          7.3001   -1.8086   10.0820 O.3       1 <0>        -0.4938
     41 O5          2.2611   -6.1715    2.5852 O.3       1 <0>        -0.6030
     42 O6         -1.9117   -0.4666   -3.0663 O.3       1 <0>        -0.5860
     43 O7          7.0680   -0.9312    2.4393 O.3       1 <0>        -0.6021
     44 H1          8.9541   -0.3478    6.1229 H         1 <0>         0.1412
     45 H2          6.1888   -3.6511    6.0922 H         1 <0>         0.1451
     46 H3          8.7845   -0.2308    8.5812 H         1 <0>         0.1336
     47 H4          6.0217   -3.5316    8.5514 H         1 <0>         0.1567
     48 H5          3.3605   -5.7937    0.1218 H         1 <0>         0.0649
     49 H6          2.4319   -5.4897   -1.3370 H         1 <0>         0.0476
     50 H7          0.3241   -5.6545   -0.1129 H         1 <0>         0.0641
     51 H8          1.3294   -7.0545    0.2691 H         1 <0>         0.0484
     52 H9          0.5754   -3.3919   -0.8000 H         1 <0>         0.0596
     53 H10         1.8977   -2.7914   -1.8003 H         1 <0>         0.0757
     54 H11         1.0807   -3.9085    3.1823 H         1 <0>         0.0782
     55 H12         0.1523   -3.7376    1.7002 H         1 <0>         0.0812
     56 H13         2.2202   -0.8626   -0.4249 H         1 <0>         0.0731
     57 H14         3.5726   -3.4842   -0.2571 H         1 <0>         0.0511
     58 H15         3.1875   -3.5701    2.0864 H         1 <0>         0.0753
     59 H16         0.2435   -6.1003    2.3075 H         1 <0>         0.0427
     60 H17         4.2001   -1.1859    7.4289 H         1 <0>         0.0450
     61 H18         4.0203    0.2482    6.4220 H         1 <0>         0.0406
     62 H19         4.5693   -1.2752    5.6986 H         1 <0>         0.0274
     63 H20         2.8852   -3.3113    5.6789 H         1 <0>         0.0476
     64 H21         2.5335   -3.0185    7.3913 H         1 <0>         0.0170
     65 H22         1.2173   -3.0301    6.2104 H         1 <0>         0.0477
     66 H23         7.5676   -3.1238    4.1408 H         1 <0>         0.0814
     67 H24         8.7032   -1.7908    4.1693 H         1 <0>         0.0685
     68 H25        -0.6988    2.8850    0.4382 H         1 <0>         0.1016
     69 H26         0.6522    2.4378   -0.5989 H         1 <0>         0.0660
     70 H27        -0.9322    1.9150   -2.4635 H         1 <0>         0.0512
     71 H28        -2.2895    2.4130   -1.4734 H         1 <0>         0.0454
     72 H29         0.9469   -1.1516    4.5828 H         1 <0>         0.0575
     73 H30         2.0032    0.2464    4.6399 H         1 <0>         0.0743
     74 H31         0.3360    4.8982   -0.5709 H         1 <0>         0.0662
     75 H32        -1.3308    4.7163   -1.1364 H         1 <0>         0.0622
     76 H33        -3.4032    0.0453   -1.7522 H         1 <0>         0.0321
     77 H34        -2.4395   -1.3766   -1.3144 H         1 <0>         0.0204
     78 H35         2.8203   -2.5449    3.6159 H         1 <0>         0.0749
     79 H36         6.5115   -0.2411    4.2859 H         1 <0>         0.0719
     80 H37         1.7968   -0.7138    6.8816 H         1 <0>         0.0609
     81 H38        -1.8404    0.5790    0.1132 H         1 <0>         0.1063
     82 H39         0.9664    4.4595   -5.0662 H         1 <0>         0.4792
     83 H40         0.7811    6.1800   -5.2022 H         1 <0>         0.4819
     84 H41        -0.4383    6.7278   -1.8299 H         1 <0>         0.4802
     85 H42        -0.0300    7.4945   -3.3378 H         1 <0>         0.4826
     86 H43         0.5534    0.0962   -1.5282 H         1 <0>         0.3101
     87 H44         4.4137   -0.0309    3.6864 H         1 <0>         0.3087
     88 H45         0.4019    3.3620   -2.9791 H         1 <0>         0.4846
     89 H46         7.3998   -0.8913   10.3827 H         1 <0>         0.4194
     90 H47         2.7873   -5.4145    2.8873 H         1 <0>         0.4036
     91 H48        -2.1844    0.3451   -3.5237 H         1 <0>         0.4114
     92 H49         8.0124   -1.1538    2.3984 H         1 <0>         0.3944
@<TRIPOS>BOND
     1    1    3 ar
     2    1    5 ar
     3    2    4 ar
     4    2    5 ar
     5    3    6 ar
     6    4    6 ar
     7    5   21 1
     8    6   40 1
     9    7   15 1
    10    7   34 am
    11    7   37 2
    12    8   27 1
    13    8   31 am
    14    8   38 2
    15    9   28 1
    16    9   35 am
    17    9   39 2
    18   10   32 1
    19   10   33 1
    20   10   36 1
    21   11   12 1
    22   11   16 1
    23   12   18 1
    24   13   15 1
    25   13   16 1
    26   14   17 1
    27   14   18 1
    28   15   31 1
    29   16   17 1
    30   17   31 1
    31   18   41 1
    32   19   29 1
    33   20   29 1
    34   21   28 1
    35   22   23 1
    36   22   25 1
    37   23   30 1
    38   24   27 1
    39   24   29 1
    40   25   36 1
    41   26   30 1
    42   26   42 1
    43   27   35 1
    44   28   43 1
    45   30   34 1
    46    1   44 1
    47    2   45 1
    48    3   46 1
    49    4   47 1
    50   11   48 1
    51   11   49 1
    52   12   50 1
    53   12   51 1
    54   13   52 1
    55   13   53 1
    56   14   54 1
    57   14   55 1
    58   15   56 1
    59   16   57 1
    60   17   58 1
    61   18   59 1
    62   19   60 1
    63   19   61 1
    64   19   62 1
    65   20   63 1
    66   20   64 1
    67   20   65 1
    68   21   66 1
    69   21   67 1
    70   22   68 1
    71   22   69 1
    72   23   70 1
    73   23   71 1
    74   24   72 1
    75   24   73 1
    76   25   74 1
    77   25   75 1
    78   26   76 1
    79   26   77 1
    80   27   78 1
    81   28   79 1
    82   29   80 1
    83   30   81 1
    84   32   82 1
    85   32   83 1
    86   33   84 1
    87   33   85 1
    88   34   86 1
    89   35   87 1
    90   36   88 1
    91   40   89 1
    92   41   90 1
    93   42   91 1
    94   43   92 1
@<TRIPOS>MOLECULE
1a2c_ligand_99
   92    94     0     0     0
SMALL
USER_CHARGES

mmff94s_NoEstat = 110.46
@<TRIPOS>ATOM
      1 C1          8.7134   -2.2414    5.6573 C.ar      1 <0>        -0.0708
      2 C2          7.1386   -3.9431    4.9781 C.ar      1 <0>        -0.0872
      3 C3          8.8315   -2.8496    6.9070 C.ar      1 <0>        -0.2241
      4 C4          7.2568   -4.5513    6.2278 C.ar      1 <0>        -0.1600
      5 C5          7.8686   -2.7964    4.7096 C.ar      1 <0>        -0.1356
      6 C6          8.1032   -4.0045    7.1923 C.ar      1 <0>         0.1290
      7 C7          0.1755   -1.0766    0.1327 C.2       1 <0>         0.6664
      8 C8          2.3785   -0.9757    2.2764 C.2       1 <0>         0.6651
      9 C9          5.2695   -1.7615    3.1198 C.2       1 <0>         0.6454
     10 C10         0.3443    5.9186   -0.4394 C.cat     1 <0>         0.6349
     11 C11         2.4521   -5.3069   -0.2561 C.3       1 <0>        -0.0642
     12 C12         1.2413   -5.9691    0.3982 C.3       1 <0>        -0.0747
     13 C13         1.5734   -2.9393   -0.7647 C.3       1 <0>        -0.0873
     14 C14         1.0938   -4.1277    2.1072 C.3       1 <0>        -0.1371
     15 C15         1.5650   -1.6216    0.0133 C.3       1 <0>         0.0360
     16 C16         2.5597   -3.8106    0.0203 C.3       1 <0>        -0.0720
     17 C17         2.2934   -3.4012    1.4755 C.3       1 <0>         0.1201
     18 C18         1.1411   -5.6363    1.8853 C.3       1 <0>         0.1453
     19 C19         3.8896   -0.8379    6.4377 C.3       1 <0>        -0.0968
     20 C20         2.2599   -2.7349    6.3694 C.3       1 <0>        -0.0986
     21 C21         7.7412   -2.1384    3.3563 C.3       1 <0>        -0.0191
     22 C22        -0.6430    2.4326    0.6399 C.3       1 <0>        -0.1009
     23 C23        -1.2979    2.0260   -0.6854 C.3       1 <0>        -0.0942
     24 C24         1.9925   -0.8489    4.7298 C.3       1 <0>        -0.0988
     25 C25        -0.5996    3.9518    0.7888 C.3       1 <0>         0.1966
     26 C26        -2.1127    0.1273   -2.2253 C.3       1 <0>         0.1128
     27 C27         2.8496   -1.4560    3.6253 C.3       1 <0>         0.0786
     28 C28         6.6222   -1.0920    3.3282 C.3       1 <0>         0.0744
     29 C29         2.4383   -1.2292    6.1562 C.3       1 <0>        -0.0678
     30 C30        -1.4370    0.5062   -0.9051 C.3       1 <0>         0.1065
     31 N1          2.0322   -1.9586    1.3590 N.am      1 <0>        -0.4315
     32 N2          1.0795    6.4347   -1.5015 N.pl3     1 <0>        -0.8671
     33 N3         -0.2072    6.7924    0.4913 N.pl3     1 <0>        -0.8581
     34 N4         -0.1481   -0.1440   -0.8342 N.am      1 <0>        -0.5687
     35 N5          4.2184   -1.0331    3.6724 N.am      1 <0>        -0.5746
     36 N6          0.1533    4.5333   -0.2970 N.pl3     1 <0>        -0.7533
     37 O1         -0.5534   -1.4727    1.0347 O.2       1 <0>        -0.5843
     38 O2          2.3230    0.2335    2.0409 O.2       1 <0>        -0.6812
     39 O3          5.1476   -2.8360    2.5359 O.2       1 <0>        -0.5788
     40 O4          8.2197   -4.5989    8.4112 O.3       1 <0>        -0.4938
     41 O5          2.2611   -6.1715    2.5852 O.3       1 <0>        -0.6030
     42 O6         -2.2112   -1.2870   -2.3289 O.3       1 <0>        -0.5860
     43 O7          6.8495   -0.2021    2.2447 O.3       1 <0>        -0.6021
     44 H1          9.2846   -1.3419    5.4443 H         1 <0>         0.1412
     45 H2          6.4769   -4.3764    4.2325 H         1 <0>         0.1451
     46 H3          9.4925   -2.4190    7.6540 H         1 <0>         0.1336
     47 H4          6.6874   -5.4515    6.4438 H         1 <0>         0.1567
     48 H5          3.3605   -5.7937    0.1218 H         1 <0>         0.0649
     49 H6          2.4319   -5.4897   -1.3370 H         1 <0>         0.0476
     50 H7          0.3241   -5.6545   -0.1129 H         1 <0>         0.0641
     51 H8          1.3294   -7.0545    0.2691 H         1 <0>         0.0484
     52 H9          0.5754   -3.3919   -0.8000 H         1 <0>         0.0596
     53 H10         1.8977   -2.7914   -1.8003 H         1 <0>         0.0757
     54 H11         1.0807   -3.9085    3.1823 H         1 <0>         0.0782
     55 H12         0.1523   -3.7376    1.7002 H         1 <0>         0.0812
     56 H13         2.2202   -0.8626   -0.4249 H         1 <0>         0.0731
     57 H14         3.5726   -3.4842   -0.2571 H         1 <0>         0.0511
     58 H15         3.1875   -3.5701    2.0864 H         1 <0>         0.0753
     59 H16         0.2435   -6.1003    2.3075 H         1 <0>         0.0427
     60 H17         4.2001   -1.1859    7.4289 H         1 <0>         0.0450
     61 H18         4.0203    0.2482    6.4220 H         1 <0>         0.0406
     62 H19         4.5693   -1.2752    5.6986 H         1 <0>         0.0274
     63 H20         2.8852   -3.3113    5.6789 H         1 <0>         0.0476
     64 H21         2.5335   -3.0185    7.3913 H         1 <0>         0.0170
     65 H22         1.2173   -3.0301    6.2104 H         1 <0>         0.0477
     66 H23         7.5546   -2.9097    2.5971 H         1 <0>         0.0814
     67 H24         8.7095   -1.6918    3.0973 H         1 <0>         0.0685
     68 H25        -1.1995    2.0063    1.4826 H         1 <0>         0.1016
     69 H26         0.3766    2.0329    0.6979 H         1 <0>         0.0660
     70 H27        -0.7150    2.4492   -1.5148 H         1 <0>         0.0512
     71 H28        -2.2909    2.4892   -0.7497 H         1 <0>         0.0454
     72 H29         0.9469   -1.1516    4.5828 H         1 <0>         0.0575
     73 H30         2.0032    0.2464    4.6399 H         1 <0>         0.0743
     74 H31        -0.1297    4.2271    1.7389 H         1 <0>         0.0662
     75 H32        -1.6126    4.3671    0.7838 H         1 <0>         0.0622
     76 H33        -1.5587    0.5035   -3.0917 H         1 <0>         0.0321
     77 H34        -3.1279    0.5382   -2.2680 H         1 <0>         0.0204
     78 H35         2.8203   -2.5449    3.6159 H         1 <0>         0.0749
     79 H36         6.5944   -0.5059    4.2543 H         1 <0>         0.0719
     80 H37         1.7968   -0.7138    6.8816 H         1 <0>         0.0609
     81 H38        -2.0581    0.1260   -0.0837 H         1 <0>         0.1063
     82 H39         1.5025    5.8345   -2.2044 H         1 <0>         0.4792
     83 H40         1.2174    7.4376   -1.6029 H         1 <0>         0.4819
     84 H41        -0.7502    6.4489    1.2798 H         1 <0>         0.4802
     85 H42        -0.0827    7.7984    0.4073 H         1 <0>         0.4826
     86 H43         0.5534    0.0962   -1.5282 H         1 <0>         0.3101
     87 H44         4.4349   -0.1495    4.1364 H         1 <0>         0.3087
     88 H45         0.5822    3.9340   -1.0126 H         1 <0>         0.4846
     89 H46         8.3834   -3.9314    9.0965 H         1 <0>         0.4194
     90 H47         2.7873   -5.4145    2.8873 H         1 <0>         0.4036
     91 H48        -1.3448   -1.6067   -2.6281 H         1 <0>         0.4114
     92 H49         7.7718   -0.3269    1.9673 H         1 <0>         0.3944
@<TRIPOS>BOND
     1    1    3 ar
     2    1    5 ar
     3    2    4 ar
     4    2    5 ar
     5    3    6 ar
     6    4    6 ar
     7    5   21 1
     8    6   40 1
     9    7   15 1
    10    7   34 am
    11    7   37 2
    12    8   27 1
    13    8   31 am
    14    8   38 2
    15    9   28 1
    16    9   35 am
    17    9   39 2
    18   10   32 1
    19   10   33 1
    20   10   36 1
    21   11   12 1
    22   11   16 1
    23   12   18 1
    24   13   15 1
    25   13   16 1
    26   14   17 1
    27   14   18 1
    28   15   31 1
    29   16   17 1
    30   17   31 1
    31   18   41 1
    32   19   29 1
    33   20   29 1
    34   21   28 1
    35   22   23 1
    36   22   25 1
    37   23   30 1
    38   24   27 1
    39   24   29 1
    40   25   36 1
    41   26   30 1
    42   26   42 1
    43   27   35 1
    44   28   43 1
    45   30   34 1
    46    1   44 1
    47    2   45 1
    48    3   46 1
    49    4   47 1
    50   11   48 1
    51   11   49 1
    52   12   50 1
    53   12   51 1
    54   13   52 1
    55   13   53 1
    56   14   54 1
    57   14   55 1
    58   15   56 1
    59   16   57 1
    60   17   58 1
    61   18   59 1
    62   19   60 1
    63   19   61 1
    64   19   62 1
    65   20   63 1
    66   20   64 1
    67   20   65 1
    68   21   66 1
    69   21   67 1
    70   22   68 1
    71   22   69 1
    72   23   70 1
    73   23   71 1
    74   24   72 1
    75   24   73 1
    76   25   74 1
    77   25   75 1
    78   26   76 1
    79   26   77 1
    80   27   78 1
    81   28   79 1
    82   29   80 1
    83   30   81 1
    84   32   82 1
    85   32   83 1
    86   33   84 1
    87   33   85 1
    88   34   86 1
    89   35   87 1
    90   36   88 1
    91   40   89 1
    92   41   90 1
    93   42   91 1
    94   43   92 1
@<TRIPOS>MOLECULE
1a2c_ligand_100
   92    94     0     0     0
SMALL
USER_CHARGES

mmff94s_NoEstat = 110.46
@<TRIPOS>ATOM
      1 C1         -8.1430   -5.2700   -1.6236 C.ar      1 <0>        -0.0708
      2 C2         -8.4504   -3.7980    0.2673 C.ar      1 <0>        -0.0872
      3 C3         -9.4290   -5.7773   -1.4378 C.ar      1 <0>        -0.2241
      4 C4         -9.7364   -4.3052    0.4531 C.ar      1 <0>        -0.1600
      5 C5         -7.6710   -4.2872   -0.7686 C.ar      1 <0>        -0.1356
      6 C6        -10.2258   -5.2949   -0.3994 C.ar      1 <0>         0.1290
      7 C7         -0.0512   -1.0561    0.2993 C.2       1 <0>         0.6664
      8 C8         -1.8469   -3.0457    2.1630 C.2       1 <0>         0.6651
      9 C9         -3.9484   -3.7154   -0.0348 C.2       1 <0>         0.6454
     10 C10        -2.4167    4.7896   -2.8015 C.cat     1 <0>         0.6349
     11 C11         2.5186   -3.1911    0.6823 C.3       1 <0>        -0.0642
     12 C12         2.4580   -4.6414    0.2376 C.3       1 <0>        -0.0747
     13 C13         1.4874   -1.4827    2.2418 C.3       1 <0>        -0.0873
     14 C14         0.4946   -5.0934    1.7133 C.3       1 <0>        -0.1371
     15 C15         0.0412   -1.4176    1.7503 C.3       1 <0>         0.0360
     16 C16         1.8865   -2.9529    2.0632 C.3       1 <0>        -0.0720
     17 C17         0.5665   -3.7001    2.3454 C.3       1 <0>         0.1201
     18 C18         1.0248   -5.1525    0.2868 C.3       1 <0>         0.1453
     19 C19        -5.5746   -0.7475    1.4860 C.3       1 <0>        -0.0968
     20 C20        -3.7112    0.7464    0.7408 C.3       1 <0>        -0.0986
     21 C21        -6.2790   -3.7375   -0.9703 C.3       1 <0>        -0.0191
     22 C22        -1.0374    2.7415   -0.6235 C.3       1 <0>        -0.1009
     23 C23         0.2513    2.2726   -1.3090 C.3       1 <0>        -0.0942
     24 C24        -3.2372   -1.0062    2.4788 C.3       1 <0>        -0.0988
     25 C25        -1.1758    4.2607   -0.6924 C.3       1 <0>         0.1966
     26 C26         1.7383    0.3016   -2.0469 C.3       1 <0>         0.1128
     27 C27        -2.8325   -2.1090    1.5076 C.3       1 <0>         0.0786
     28 C28        -5.2285   -4.5282   -0.1835 C.3       1 <0>         0.0744
     29 C29        -4.2955   -0.0321    1.9228 C.3       1 <0>        -0.0678
     30 C30         0.4555    0.7445   -1.3388 C.3       1 <0>         0.1065
     31 N1         -0.4979   -2.7598    1.9615 N.am      1 <0>        -0.4315
     32 N2         -2.4125    5.2109   -4.1272 N.pl3     1 <0>        -0.8671
     33 N3         -3.6262    4.4629   -2.1979 N.pl3     1 <0>        -0.8581
     34 N4          0.4455    0.1980   -0.0008 N.am      1 <0>        -0.5687
     35 N5         -3.9193   -2.9688    1.1410 N.am      1 <0>        -0.5746
     36 N6         -1.2206    4.6907   -2.0698 N.pl3     1 <0>        -0.7533
     37 O1         -0.5362   -1.8555   -0.4928 O.2       1 <0>        -0.5843
     38 O2         -2.2659   -3.9924    2.8322 O.2       1 <0>        -0.6812
     39 O3         -3.0587   -3.7239   -0.8825 O.2       1 <0>        -0.5788
     40 O4        -11.4813   -5.7887   -0.2191 O.3       1 <0>        -0.4938
     41 O5          0.9879   -6.5072   -0.1510 O.3       1 <0>        -0.6030
     42 O6          2.8703    0.8436   -1.3793 O.3       1 <0>        -0.5860
     43 O7         -4.9192   -5.7187   -0.8939 O.3       1 <0>        -0.6021
     44 H1         -7.5297   -5.6521   -2.4352 H         1 <0>         0.1412
     45 H2         -8.0776   -3.0267    0.9363 H         1 <0>         0.1451
     46 H3         -9.8045   -6.5479   -2.1053 H         1 <0>         0.1336
     47 H4        -10.3528   -3.9247    1.2634 H         1 <0>         0.1567
     48 H5          3.5627   -2.8549    0.7003 H         1 <0>         0.0649
     49 H6          2.0259   -2.5829   -0.0837 H         1 <0>         0.0476
     50 H7          2.8567   -4.7427   -0.7790 H         1 <0>         0.0641
     51 H8          3.1032   -5.2618    0.8729 H         1 <0>         0.0484
     52 H9          2.1569   -0.7868    1.7257 H         1 <0>         0.0596
     53 H10         1.5124   -1.2395    3.3116 H         1 <0>         0.0757
     54 H11         1.0921   -5.7802    2.3299 H         1 <0>         0.0782
     55 H12        -0.5175   -5.5090    1.7393 H         1 <0>         0.0812
     56 H13        -0.5378   -0.6778    2.3126 H         1 <0>         0.0731
     57 H14         2.6304   -3.2407    2.8169 H         1 <0>         0.0511
     58 H15         0.4523   -3.8218    3.4319 H         1 <0>         0.0753
     59 H16         0.3841   -4.5700   -0.3844 H         1 <0>         0.0427
     60 H17        -6.2768   -0.0422    1.0282 H         1 <0>         0.0450
     61 H18        -6.0867   -1.2049    2.3377 H         1 <0>         0.0406
     62 H19        -5.3599   -1.5330    0.7535 H         1 <0>         0.0274
     63 H20        -3.4369    0.0757   -0.0807 H         1 <0>         0.0476
     64 H21        -4.4352    1.4732    0.3573 H         1 <0>         0.0170
     65 H22        -2.8146    1.2981    1.0427 H         1 <0>         0.0477
     66 H23        -6.2612   -2.6822   -0.6666 H         1 <0>         0.0814
     67 H24        -6.0581   -3.7432   -2.0450 H         1 <0>         0.0685
     68 H25        -1.9092    2.2808   -1.1025 H         1 <0>         0.1016
     69 H26        -1.0467    2.4234    0.4259 H         1 <0>         0.0660
     70 H27         1.1110    2.7323   -0.8028 H         1 <0>         0.0512
     71 H28         0.2685    2.6560   -2.3373 H         1 <0>         0.0454
     72 H29        -2.3434   -0.4411    2.7760 H         1 <0>         0.0575
     73 H30        -3.6273   -1.4576    3.4018 H         1 <0>         0.0743
     74 H31        -0.3281    4.7425   -0.1937 H         1 <0>         0.0662
     75 H32        -2.0906    4.5862   -0.1866 H         1 <0>         0.0622
     76 H33         1.7614    0.6251   -3.0928 H         1 <0>         0.0321
     77 H34         1.8289   -0.7905   -2.0281 H         1 <0>         0.0204
     78 H35        -2.3687   -1.7253    0.5998 H         1 <0>         0.0749
     79 H36        -5.5950   -4.8071    0.8115 H         1 <0>         0.0719
     80 H37        -4.5575    0.6951    2.7011 H         1 <0>         0.0609
     81 H38        -0.3978    0.3245   -1.8868 H         1 <0>         0.1063
     82 H39        -1.5532    5.4619   -4.6087 H         1 <0>         0.4792
     83 H40        -3.2791    5.2826   -4.6554 H         1 <0>         0.4819
     84 H41        -3.6654    4.1514   -1.2304 H         1 <0>         0.4802
     85 H42        -4.5035    4.5259   -2.7087 H         1 <0>         0.4826
     86 H43         0.8216    0.7626    0.7549 H         1 <0>         0.3101
     87 H44        -4.7157   -3.0377    1.7764 H         1 <0>         0.3087
     88 H45        -0.3567    4.9441   -2.5643 H         1 <0>         0.4846
     89 H46       -11.5161   -6.7226   -0.4809 H         1 <0>         0.4194
     90 H47         1.8515   -6.8926    0.0654 H         1 <0>         0.4036
     91 H48         2.9636    1.7601   -1.6856 H         1 <0>         0.4114
     92 H49        -5.6257   -5.8474   -1.5477 H         1 <0>         0.3944
@<TRIPOS>BOND
     1    1    3 ar
     2    1    5 ar
     3    2    4 ar
     4    2    5 ar
     5    3    6 ar
     6    4    6 ar
     7    5   21 1
     8    6   40 1
     9    7   15 1
    10    7   34 am
    11    7   37 2
    12    8   27 1
    13    8   31 am
    14    8   38 2
    15    9   28 1
    16    9   35 am
    17    9   39 2
    18   10   32 1
    19   10   33 1
    20   10   36 1
    21   11   12 1
    22   11   16 1
    23   12   18 1
    24   13   15 1
    25   13   16 1
    26   14   17 1
    27   14   18 1
    28   15   31 1
    29   16   17 1
    30   17   31 1
    31   18   41 1
    32   19   29 1
    33   20   29 1
    34   21   28 1
    35   22   23 1
    36   22   25 1
    37   23   30 1
    38   24   27 1
    39   24   29 1
    40   25   36 1
    41   26   30 1
    42   26   42 1
    43   27   35 1
    44   28   43 1
    45   30   34 1
    46    1   44 1
    47    2   45 1
    48    3   46 1
    49    4   47 1
    50   11   48 1
    51   11   49 1
    52   12   50 1
    53   12   51 1
    54   13   52 1
    55   13   53 1
    56   14   54 1
    57   14   55 1
    58   15   56 1
    59   16   57 1
    60   17   58 1
    61   18   59 1
    62   19   60 1
    63   19   61 1
    64   19   62 1
    65   20   63 1
    66   20   64 1
    67   20   65 1
    68   21   66 1
    69   21   67 1
    70   22   68 1
    71   22   69 1
    72   23   70 1
    73   23   71 1
    74   24   72 1
    75   24   73 1
    76   25   74 1
    77   25   75 1
    78   26   76 1
    79   26   77 1
    80   27   78 1
    81   28   79 1
    82   29   80 1
    83   30   81 1
    84   32   82 1
    85   32   83 1
    86   33   84 1
    87   33   85 1
    88   34   86 1
    89   35   87 1
    90   36   88 1
    91   40   89 1
    92   41   90 1
    93   42   91 1
    94   43   92 1
@<TRIPOS>MOLECULE
1a2c_ligand_101
   92    94     0     0     0
SMALL
USER_CHARGES

mmff94s_NoEstat = 110.53
@<TRIPOS>ATOM
      1 C1         -7.7819   -5.3134   -0.2446 C.ar      1 <0>        -0.0708
      2 C2         -6.4637   -5.0735   -2.2550 C.ar      1 <0>        -0.0872
      3 C3         -8.7792   -5.9591   -0.9756 C.ar      1 <0>        -0.2241
      4 C4         -7.4609   -5.7192   -2.9860 C.ar      1 <0>        -0.1600
      5 C5         -6.6376   -4.8793   -0.8941 C.ar      1 <0>        -0.1356
      6 C6         -8.6187   -6.1620   -2.3463 C.ar      1 <0>         0.1290
      7 C7         -0.0512   -1.0561    0.2993 C.2       1 <0>         0.6664
      8 C8         -1.8469   -3.0457    2.1630 C.2       1 <0>         0.6651
      9 C9         -4.4743   -1.9575    0.3333 C.2       1 <0>         0.6454
     10 C10         4.3140   -0.8640   -5.2229 C.cat     1 <0>         0.6349
     11 C11         2.5186   -3.1911    0.6823 C.3       1 <0>        -0.0642
     12 C12         2.4580   -4.6414    0.2376 C.3       1 <0>        -0.0747
     13 C13         1.4874   -1.4827    2.2418 C.3       1 <0>        -0.0873
     14 C14         0.4946   -5.0934    1.7133 C.3       1 <0>        -0.1371
     15 C15         0.0412   -1.4176    1.7503 C.3       1 <0>         0.0360
     16 C16         1.8865   -2.9529    2.0632 C.3       1 <0>        -0.0720
     17 C17         0.5665   -3.7001    2.3454 C.3       1 <0>         0.1201
     18 C18         1.0248   -5.1525    0.2868 C.3       1 <0>         0.1453
     19 C19        -5.3726   -0.5418    3.1302 C.3       1 <0>        -0.0968
     20 C20        -3.4397    1.0389    2.9738 C.3       1 <0>        -0.0986
     21 C21        -5.5577   -4.1810   -0.1027 C.3       1 <0>        -0.0191
     22 C22         2.8091   -0.2380   -1.8118 C.3       1 <0>        -0.1009
     23 C23         1.3524   -0.0970   -2.2688 C.3       1 <0>        -0.0942
     24 C24        -2.9973   -1.3585    3.5851 C.3       1 <0>        -0.0988
     25 C25         3.6273   -1.0396   -2.8217 C.3       1 <0>         0.1966
     26 C26        -0.9878    0.8875   -1.8280 C.3       1 <0>         0.1128
     27 C27        -2.7865   -1.8644    2.1628 C.3       1 <0>         0.0786
     28 C28        -5.7663   -2.6636   -0.0588 C.3       1 <0>         0.0744
     29 C29        -3.9969   -0.1898    3.6979 C.3       1 <0>        -0.0678
     30 C30         0.4555    0.7445   -1.3388 C.3       1 <0>         0.1065
     31 N1         -0.4979   -2.7598    1.9615 N.am      1 <0>        -0.4315
     32 N2          4.2803   -0.1880   -6.4381 N.pl3     1 <0>        -0.8671
     33 N3          5.0441   -2.0434   -5.1232 N.pl3     1 <0>        -0.8581
     34 N4          0.4455    0.1980   -0.0008 N.am      1 <0>        -0.5687
     35 N5         -3.9799   -2.3853    1.5634 N.am      1 <0>        -0.5746
     36 N6          3.6234   -0.3721   -4.1018 N.pl3     1 <0>        -0.7533
     37 O1         -0.5362   -1.8555   -0.4928 O.2       1 <0>        -0.5843
     38 O2         -2.2998   -4.1783    2.3409 O.2       1 <0>        -0.6812
     39 O3         -3.9527   -1.0962   -0.3713 O.2       1 <0>        -0.5788
     40 O4         -9.5911   -6.7934   -3.0592 O.3       1 <0>        -0.4938
     41 O5          0.9879   -6.5072   -0.1510 O.3       1 <0>        -0.6030
     42 O6         -1.7287    1.6906   -0.9186 O.3       1 <0>        -0.5860
     43 O7         -6.7522   -2.3613    0.9179 O.3       1 <0>        -0.6021
     44 H1         -7.9160   -5.1597    0.8227 H         1 <0>         0.1412
     45 H2         -5.5648   -4.7322   -2.7618 H         1 <0>         0.1451
     46 H3         -9.6786   -6.3017   -0.4716 H         1 <0>         0.1336
     47 H4         -7.3297   -5.8752   -4.0535 H         1 <0>         0.1567
     48 H5          3.5627   -2.8549    0.7003 H         1 <0>         0.0649
     49 H6          2.0259   -2.5829   -0.0837 H         1 <0>         0.0476
     50 H7          2.8567   -4.7427   -0.7790 H         1 <0>         0.0641
     51 H8          3.1032   -5.2618    0.8729 H         1 <0>         0.0484
     52 H9          2.1569   -0.7868    1.7257 H         1 <0>         0.0596
     53 H10         1.5124   -1.2395    3.3116 H         1 <0>         0.0757
     54 H11         1.0921   -5.7802    2.3299 H         1 <0>         0.0782
     55 H12        -0.5175   -5.5090    1.7393 H         1 <0>         0.0812
     56 H13        -0.5378   -0.6778    2.3126 H         1 <0>         0.0731
     57 H14         2.6304   -3.2407    2.8169 H         1 <0>         0.0511
     58 H15         0.4523   -3.8218    3.4319 H         1 <0>         0.0753
     59 H16         0.3841   -4.5700   -0.3844 H         1 <0>         0.0427
     60 H17        -6.0375    0.3284    3.1563 H         1 <0>         0.0450
     61 H18        -5.8542   -1.3328    3.7128 H         1 <0>         0.0406
     62 H19        -5.2988   -0.8789    2.0908 H         1 <0>         0.0274
     63 H20        -3.3028    0.8425    1.9049 H         1 <0>         0.0476
     64 H21        -4.1178    1.8926    3.0773 H         1 <0>         0.0170
     65 H22        -2.4708    1.3315    3.3922 H         1 <0>         0.0477
     66 H23        -4.5797   -4.4138   -0.5447 H         1 <0>         0.0814
     67 H24        -5.5388   -4.6089    0.9075 H         1 <0>         0.0685
     68 H25         3.2637    0.7519   -1.6883 H         1 <0>         0.1016
     69 H26         2.8542   -0.7324   -0.8340 H         1 <0>         0.0660
     70 H27         0.9126   -1.0986   -2.3693 H         1 <0>         0.0512
     71 H28         1.3348    0.3408   -3.2751 H         1 <0>         0.0454
     72 H29        -2.0302   -1.0518    4.0061 H         1 <0>         0.0575
     73 H30        -3.3514   -2.1846    4.2177 H         1 <0>         0.0743
     74 H31         3.2070   -2.0439   -2.9397 H         1 <0>         0.0662
     75 H32         4.6614   -1.1478   -2.4785 H         1 <0>         0.0622
     76 H33        -1.4861   -0.0829   -1.9233 H         1 <0>         0.0321
     77 H34        -1.0136    1.3790   -2.8073 H         1 <0>         0.0204
     78 H35        -2.3647   -1.1082    1.5019 H         1 <0>         0.0749
     79 H36        -6.1093   -2.2753   -1.0251 H         1 <0>         0.0719
     80 H37        -4.1195    0.0762    4.7551 H         1 <0>         0.0609
     81 H38         0.9010    1.7469   -1.2960 H         1 <0>         0.1063
     82 H39         3.7586    0.6761   -6.5582 H         1 <0>         0.4792
     83 H40         4.7802   -0.5455   -7.2489 H         1 <0>         0.4819
     84 H41         5.0901   -2.5628   -4.2499 H         1 <0>         0.4802
     85 H42         5.5525   -2.4170   -5.9211 H         1 <0>         0.4826
     86 H43         0.8216    0.7626    0.7549 H         1 <0>         0.3101
     87 H44        -4.4957   -3.1095    2.0656 H         1 <0>         0.3087
     88 H45         3.1004    0.5025   -4.2311 H         1 <0>         0.4846
     89 H46       -10.4643   -6.5976   -2.6838 H         1 <0>         0.4194
     90 H47         1.8515   -6.8926    0.0654 H         1 <0>         0.4036
     91 H48        -1.9874    1.1133   -0.1822 H         1 <0>         0.4114
     92 H49        -7.2150   -3.1917    1.1166 H         1 <0>         0.3944
@<TRIPOS>BOND
     1    1    3 ar
     2    1    5 ar
     3    2    4 ar
     4    2    5 ar
     5    3    6 ar
     6    4    6 ar
     7    5   21 1
     8    6   40 1
     9    7   15 1
    10    7   34 am
    11    7   37 2
    12    8   27 1
    13    8   31 am
    14    8   38 2
    15    9   28 1
    16    9   35 am
    17    9   39 2
    18   10   32 1
    19   10   33 1
    20   10   36 1
    21   11   12 1
    22   11   16 1
    23   12   18 1
    24   13   15 1
    25   13   16 1
    26   14   17 1
    27   14   18 1
    28   15   31 1
    29   16   17 1
    30   17   31 1
    31   18   41 1
    32   19   29 1
    33   20   29 1
    34   21   28 1
    35   22   23 1
    36   22   25 1
    37   23   30 1
    38   24   27 1
    39   24   29 1
    40   25   36 1
    41   26   30 1
    42   26   42 1
    43   27   35 1
    44   28   43 1
    45   30   34 1
    46    1   44 1
    47    2   45 1
    48    3   46 1
    49    4   47 1
    50   11   48 1
    51   11   49 1
    52   12   50 1
    53   12   51 1
    54   13   52 1
    55   13   53 1
    56   14   54 1
    57   14   55 1
    58   15   56 1
    59   16   57 1
    60   17   58 1
    61   18   59 1
    62   19   60 1
    63   19   61 1
    64   19   62 1
    65   20   63 1
    66   20   64 1
    67   20   65 1
    68   21   66 1
    69   21   67 1
    70   22   68 1
    71   22   69 1
    72   23   70 1
    73   23   71 1
    74   24   72 1
    75   24   73 1
    76   25   74 1
    77   25   75 1
    78   26   76 1
    79   26   77 1
    80   27   78 1
    81   28   79 1
    82   29   80 1
    83   30   81 1
    84   32   82 1
    85   32   83 1
    86   33   84 1
    87   33   85 1
    88   34   86 1
    89   35   87 1
    90   36   88 1
    91   40   89 1
    92   41   90 1
    93   42   91 1
    94   43   92 1
@<TRIPOS>MOLECULE
1a2c_ligand_102
   92    94     0     0     0
SMALL
USER_CHARGES

mmff94s_NoEstat = 110.56
@<TRIPOS>ATOM
      1 C1          8.3103   -1.0475    6.6490 C.ar      1 <0>        -0.0708
      2 C2          6.7594   -2.8998    6.6321 C.ar      1 <0>        -0.0872
      3 C3          8.2150   -0.9804    8.0390 C.ar      1 <0>        -0.2241
      4 C4          6.6640   -2.8328    8.0220 C.ar      1 <0>        -0.1600
      5 C5          7.5813   -2.0063    5.9642 C.ar      1 <0>        -0.1356
      6 C6          7.3919   -1.8731    8.7255 C.ar      1 <0>         0.1290
      7 C7          0.1755   -1.0766    0.1327 C.2       1 <0>         0.6664
      8 C8          2.3785   -0.9757    2.2764 C.2       1 <0>         0.6651
      9 C9          5.2968   -1.9145    3.7000 C.2       1 <0>         0.6454
     10 C10        -2.2164    5.8593    0.9108 C.cat     1 <0>         0.6349
     11 C11         2.4521   -5.3069   -0.2561 C.3       1 <0>        -0.0642
     12 C12         1.2413   -5.9691    0.3982 C.3       1 <0>        -0.0747
     13 C13         1.5734   -2.9393   -0.7647 C.3       1 <0>        -0.0873
     14 C14         1.0938   -4.1277    2.1072 C.3       1 <0>        -0.1371
     15 C15         1.5650   -1.6216    0.0133 C.3       1 <0>         0.0360
     16 C16         2.5597   -3.8106    0.0203 C.3       1 <0>        -0.0720
     17 C17         2.2934   -3.4012    1.4755 C.3       1 <0>         0.1201
     18 C18         1.1411   -5.6363    1.8853 C.3       1 <0>         0.1453
     19 C19         3.8896   -0.8379    6.4377 C.3       1 <0>        -0.0968
     20 C20         2.2599   -2.7349    6.3694 C.3       1 <0>        -0.0986
     21 C21         7.6850   -2.0794    4.4595 C.3       1 <0>        -0.0191
     22 C22        -0.6430    2.4326    0.6399 C.3       1 <0>        -0.1009
     23 C23        -1.2979    2.0260   -0.6854 C.3       1 <0>        -0.0942
     24 C24         1.9925   -0.8489    4.7298 C.3       1 <0>        -0.0988
     25 C25        -0.5996    3.9518    0.7888 C.3       1 <0>         0.1966
     26 C26        -2.1127    0.1273   -2.2253 C.3       1 <0>         0.1128
     27 C27         2.8496   -1.4560    3.6253 C.3       1 <0>         0.0786
     28 C28         6.6400   -1.1984    3.7670 C.3       1 <0>         0.0744
     29 C29         2.4383   -1.2292    6.1562 C.3       1 <0>        -0.0678
     30 C30        -1.4370    0.5062   -0.9051 C.3       1 <0>         0.1065
     31 N1          2.0322   -1.9586    1.3590 N.am      1 <0>        -0.4315
     32 N2         -3.5242    6.3323    0.8841 N.pl3     1 <0>        -0.8671
     33 N3         -1.1723    6.7622    1.0802 N.pl3     1 <0>        -0.8581
     34 N4         -0.1481   -0.1440   -0.8342 N.am      1 <0>        -0.5687
     35 N5          4.2184   -1.0331    3.6724 N.am      1 <0>        -0.5746
     36 N6         -1.9396    4.4885    0.7697 N.pl3     1 <0>        -0.7533
     37 O1         -0.5534   -1.4727    1.0347 O.2       1 <0>        -0.5843
     38 O2          2.3230    0.2335    2.0409 O.2       1 <0>        -0.6812
     39 O3          5.2019   -3.1398    3.6875 O.2       1 <0>        -0.5788
     40 O4          7.3001   -1.8086   10.0820 O.3       1 <0>        -0.4938
     41 O5          2.2611   -6.1715    2.5852 O.3       1 <0>        -0.6030
     42 O6         -1.3491    0.6212   -3.3179 O.3       1 <0>        -0.5860
     43 O7          7.0680   -0.9312    2.4393 O.3       1 <0>        -0.6021
     44 H1          8.9541   -0.3478    6.1229 H         1 <0>         0.1412
     45 H2          6.1888   -3.6511    6.0922 H         1 <0>         0.1451
     46 H3          8.7845   -0.2308    8.5812 H         1 <0>         0.1336
     47 H4          6.0217   -3.5316    8.5514 H         1 <0>         0.1567
     48 H5          3.3605   -5.7937    0.1218 H         1 <0>         0.0649
     49 H6          2.4319   -5.4897   -1.3370 H         1 <0>         0.0476
     50 H7          0.3241   -5.6545   -0.1129 H         1 <0>         0.0641
     51 H8          1.3294   -7.0545    0.2691 H         1 <0>         0.0484
     52 H9          0.5754   -3.3919   -0.8000 H         1 <0>         0.0596
     53 H10         1.8977   -2.7914   -1.8003 H         1 <0>         0.0757
     54 H11         1.0807   -3.9085    3.1823 H         1 <0>         0.0782
     55 H12         0.1523   -3.7376    1.7002 H         1 <0>         0.0812
     56 H13         2.2202   -0.8626   -0.4249 H         1 <0>         0.0731
     57 H14         3.5726   -3.4842   -0.2571 H         1 <0>         0.0511
     58 H15         3.1875   -3.5701    2.0864 H         1 <0>         0.0753
     59 H16         0.2435   -6.1003    2.3075 H         1 <0>         0.0427
     60 H17         4.2001   -1.1859    7.4289 H         1 <0>         0.0450
     61 H18         4.0203    0.2482    6.4220 H         1 <0>         0.0406
     62 H19         4.5693   -1.2752    5.6986 H         1 <0>         0.0274
     63 H20         2.8852   -3.3113    5.6789 H         1 <0>         0.0476
     64 H21         2.5335   -3.0185    7.3913 H         1 <0>         0.0170
     65 H22         1.2173   -3.0301    6.2104 H         1 <0>         0.0477
     66 H23         7.5676   -3.1238    4.1408 H         1 <0>         0.0814
     67 H24         8.7032   -1.7908    4.1693 H         1 <0>         0.0685
     68 H25        -1.1995    2.0063    1.4826 H         1 <0>         0.1016
     69 H26         0.3766    2.0329    0.6979 H         1 <0>         0.0660
     70 H27        -0.7150    2.4492   -1.5148 H         1 <0>         0.0512
     71 H28        -2.2909    2.4892   -0.7497 H         1 <0>         0.0454
     72 H29         0.9469   -1.1516    4.5828 H         1 <0>         0.0575
     73 H30         2.0032    0.2464    4.6399 H         1 <0>         0.0743
     74 H31        -0.0230    4.3974   -0.0287 H         1 <0>         0.0662
     75 H32        -0.1161    4.2315    1.7305 H         1 <0>         0.0622
     76 H33        -3.1276    0.5322   -2.2969 H         1 <0>         0.0321
     77 H34        -2.1750   -0.9624   -2.3250 H         1 <0>         0.0204
     78 H35         2.8203   -2.5449    3.6159 H         1 <0>         0.0749
     79 H36         6.5115   -0.2411    4.2859 H         1 <0>         0.0719
     80 H37         1.7968   -0.7138    6.8816 H         1 <0>         0.0609
     81 H38        -2.0581    0.1260   -0.0837 H         1 <0>         0.1063
     82 H39        -4.3184    5.7100    0.7607 H         1 <0>         0.4792
     83 H40        -3.7230    7.3249    0.9858 H         1 <0>         0.4819
     84 H41        -0.2044    6.4505    1.1043 H         1 <0>         0.4802
     85 H42        -1.3494    7.7583    1.1855 H         1 <0>         0.4826
     86 H43         0.5534    0.0962   -1.5282 H         1 <0>         0.3101
     87 H44         4.4137   -0.0309    3.6864 H         1 <0>         0.3087
     88 H45        -2.7477    3.8663    0.6475 H         1 <0>         0.4846
     89 H46         7.3998   -0.8913   10.3827 H         1 <0>         0.4194
     90 H47         2.7873   -5.4145    2.8873 H         1 <0>         0.4036
     91 H48        -1.5776    1.5595   -3.4176 H         1 <0>         0.4114
     92 H49         8.0124   -1.1538    2.3984 H         1 <0>         0.3944
@<TRIPOS>BOND
     1    1    3 ar
     2    1    5 ar
     3    2    4 ar
     4    2    5 ar
     5    3    6 ar
     6    4    6 ar
     7    5   21 1
     8    6   40 1
     9    7   15 1
    10    7   34 am
    11    7   37 2
    12    8   27 1
    13    8   31 am
    14    8   38 2
    15    9   28 1
    16    9   35 am
    17    9   39 2
    18   10   32 1
    19   10   33 1
    20   10   36 1
    21   11   12 1
    22   11   16 1
    23   12   18 1
    24   13   15 1
    25   13   16 1
    26   14   17 1
    27   14   18 1
    28   15   31 1
    29   16   17 1
    30   17   31 1
    31   18   41 1
    32   19   29 1
    33   20   29 1
    34   21   28 1
    35   22   23 1
    36   22   25 1
    37   23   30 1
    38   24   27 1
    39   24   29 1
    40   25   36 1
    41   26   30 1
    42   26   42 1
    43   27   35 1
    44   28   43 1
    45   30   34 1
    46    1   44 1
    47    2   45 1
    48    3   46 1
    49    4   47 1
    50   11   48 1
    51   11   49 1
    52   12   50 1
    53   12   51 1
    54   13   52 1
    55   13   53 1
    56   14   54 1
    57   14   55 1
    58   15   56 1
    59   16   57 1
    60   17   58 1
    61   18   59 1
    62   19   60 1
    63   19   61 1
    64   19   62 1
    65   20   63 1
    66   20   64 1
    67   20   65 1
    68   21   66 1
    69   21   67 1
    70   22   68 1
    71   22   69 1
    72   23   70 1
    73   23   71 1
    74   24   72 1
    75   24   73 1
    76   25   74 1
    77   25   75 1
    78   26   76 1
    79   26   77 1
    80   27   78 1
    81   28   79 1
    82   29   80 1
    83   30   81 1
    84   32   82 1
    85   32   83 1
    86   33   84 1
    87   33   85 1
    88   34   86 1
    89   35   87 1
    90   36   88 1
    91   40   89 1
    92   41   90 1
    93   42   91 1
    94   43   92 1
@<TRIPOS>MOLECULE
1a2c_ligand_103
   92    94     0     0     0
SMALL
USER_CHARGES

mmff94s_NoEstat = 110.68
@<TRIPOS>ATOM
      1 C1          9.9563   -1.0986    4.0997 C.ar      1 <0>        -0.0708
      2 C2          8.8528   -0.7412    6.2190 C.ar      1 <0>        -0.0872
      3 C3         11.0523   -0.3601    4.5459 C.ar      1 <0>        -0.2241
      4 C4          9.9488   -0.0027    6.6652 C.ar      1 <0>        -0.1600
      5 C5          8.8713   -1.2793    4.9423 C.ar      1 <0>        -0.1356
      6 C6         11.0485    0.1878    5.8286 C.ar      1 <0>         0.1290
      7 C7          0.1755   -1.0766    0.1327 C.2       1 <0>         0.6664
      8 C8          2.3785   -0.9757    2.2764 C.2       1 <0>         0.6651
      9 C9          5.2968   -1.9145    3.7000 C.2       1 <0>         0.6454
     10 C10        -2.8598    3.6442    2.1211 C.cat     1 <0>         0.6349
     11 C11         2.4521   -5.3069   -0.2561 C.3       1 <0>        -0.0642
     12 C12         1.2413   -5.9691    0.3982 C.3       1 <0>        -0.0747
     13 C13         1.5734   -2.9393   -0.7647 C.3       1 <0>        -0.0873
     14 C14         1.0938   -4.1277    2.1072 C.3       1 <0>        -0.1371
     15 C15         1.5650   -1.6216    0.0133 C.3       1 <0>         0.0360
     16 C16         2.5597   -3.8106    0.0203 C.3       1 <0>        -0.0720
     17 C17         2.2934   -3.4012    1.4755 C.3       1 <0>         0.1201
     18 C18         1.1411   -5.6363    1.8853 C.3       1 <0>         0.1453
     19 C19         3.8896   -0.8379    6.4377 C.3       1 <0>        -0.0968
     20 C20         2.2599   -2.7349    6.3694 C.3       1 <0>        -0.0986
     21 C21         7.6850   -2.0794    4.4595 C.3       1 <0>        -0.0191
     22 C22        -0.3644    2.8488   -0.6052 C.3       1 <0>        -0.1009
     23 C23        -1.2954    1.9500   -1.4274 C.3       1 <0>        -0.0942
     24 C24         1.9925   -0.8489    4.7298 C.3       1 <0>        -0.0988
     25 C25        -0.8242    2.9336    0.8486 C.3       1 <0>         0.1966
     26 C26        -2.3878   -0.3640   -1.7308 C.3       1 <0>         0.1128
     27 C27         2.8496   -1.4560    3.6253 C.3       1 <0>         0.0786
     28 C28         6.6400   -1.1984    3.7670 C.3       1 <0>         0.0744
     29 C29         2.4383   -1.2292    6.1562 C.3       1 <0>        -0.0678
     30 C30        -1.4370    0.5062   -0.9051 C.3       1 <0>         0.1065
     31 N1          2.0322   -1.9586    1.3590 N.am      1 <0>        -0.4315
     32 N2         -4.1481    4.1686    2.1356 N.pl3     1 <0>        -0.8671
     33 N3         -2.2594    3.2879    3.3238 N.pl3     1 <0>        -0.8581
     34 N4         -0.1481   -0.1440   -0.8342 N.am      1 <0>        -0.5687
     35 N5          4.2184   -1.0331    3.6724 N.am      1 <0>        -0.5746
     36 N6         -2.1624    3.4713    0.9130 N.pl3     1 <0>        -0.7533
     37 O1         -0.5534   -1.4727    1.0347 O.2       1 <0>        -0.5843
     38 O2          2.3230    0.2335    2.0409 O.2       1 <0>        -0.6812
     39 O3          5.2019   -3.1398    3.6875 O.2       1 <0>        -0.5788
     40 O4         12.1187    0.9071    6.2646 O.3       1 <0>        -0.4938
     41 O5          2.2611   -6.1715    2.5852 O.3       1 <0>        -0.6030
     42 O6         -1.9117   -0.4666   -3.0663 O.3       1 <0>        -0.5860
     43 O7          7.0680   -0.9312    2.4393 O.3       1 <0>        -0.6021
     44 H1          9.9683   -1.5215    3.0988 H         1 <0>         0.1412
     45 H2          8.0003   -0.8848    6.8778 H         1 <0>         0.1451
     46 H3         11.9060   -0.2154    3.8896 H         1 <0>         0.1336
     47 H4          9.9403    0.4209    7.6660 H         1 <0>         0.1567
     48 H5          3.3605   -5.7937    0.1218 H         1 <0>         0.0649
     49 H6          2.4319   -5.4897   -1.3370 H         1 <0>         0.0476
     50 H7          0.3241   -5.6545   -0.1129 H         1 <0>         0.0641
     51 H8          1.3294   -7.0545    0.2691 H         1 <0>         0.0484
     52 H9          0.5754   -3.3919   -0.8000 H         1 <0>         0.0596
     53 H10         1.8977   -2.7914   -1.8003 H         1 <0>         0.0757
     54 H11         1.0807   -3.9085    3.1823 H         1 <0>         0.0782
     55 H12         0.1523   -3.7376    1.7002 H         1 <0>         0.0812
     56 H13         2.2202   -0.8626   -0.4249 H         1 <0>         0.0731
     57 H14         3.5726   -3.4842   -0.2571 H         1 <0>         0.0511
     58 H15         3.1875   -3.5701    2.0864 H         1 <0>         0.0753
     59 H16         0.2435   -6.1003    2.3075 H         1 <0>         0.0427
     60 H17         4.2001   -1.1859    7.4289 H         1 <0>         0.0450
     61 H18         4.0203    0.2482    6.4220 H         1 <0>         0.0406
     62 H19         4.5693   -1.2752    5.6986 H         1 <0>         0.0274
     63 H20         2.8852   -3.3113    5.6789 H         1 <0>         0.0476
     64 H21         2.5335   -3.0185    7.3913 H         1 <0>         0.0170
     65 H22         1.2173   -3.0301    6.2104 H         1 <0>         0.0477
     66 H23         7.2316   -2.6014    5.3127 H         1 <0>         0.0814
     67 H24         8.0500   -2.8661    3.7872 H         1 <0>         0.0685
     68 H25         0.6597    2.4590   -0.6343 H         1 <0>         0.1016
     69 H26        -0.3328    3.8571   -1.0352 H         1 <0>         0.0660
     70 H27        -0.9322    1.9150   -2.4635 H         1 <0>         0.0512
     71 H28        -2.2895    2.4130   -1.4734 H         1 <0>         0.0454
     72 H29         0.9469   -1.1516    4.5828 H         1 <0>         0.0575
     73 H30         2.0032    0.2464    4.6399 H         1 <0>         0.0743
     74 H31        -0.1507    3.5781    1.4232 H         1 <0>         0.0662
     75 H32        -0.8151    1.9419    1.3126 H         1 <0>         0.0622
     76 H33        -3.4032    0.0453   -1.7522 H         1 <0>         0.0321
     77 H34        -2.4395   -1.3766   -1.3144 H         1 <0>         0.0204
     78 H35         2.8203   -2.5449    3.6159 H         1 <0>         0.0749
     79 H36         6.5115   -0.2411    4.2859 H         1 <0>         0.0719
     80 H37         1.7968   -0.7138    6.8816 H         1 <0>         0.0609
     81 H38        -1.8404    0.5790    0.1132 H         1 <0>         0.1063
     82 H39        -4.6257    4.4446    1.2818 H         1 <0>         0.4792
     83 H40        -4.6515    4.2937    3.0108 H         1 <0>         0.4819
     84 H41        -1.3187    2.9018    3.3494 H         1 <0>         0.4802
     85 H42        -2.7458    3.4032    4.2096 H         1 <0>         0.4826
     86 H43         0.5534    0.0962   -1.5282 H         1 <0>         0.3101
     87 H44         4.4137   -0.0309    3.6864 H         1 <0>         0.3087
     88 H45        -2.6529    3.7508    0.0547 H         1 <0>         0.4846
     89 H46        12.5321    1.3777    5.5233 H         1 <0>         0.4194
     90 H47         2.7873   -5.4145    2.8873 H         1 <0>         0.4036
     91 H48        -2.1844    0.3451   -3.5237 H         1 <0>         0.4114
     92 H49         8.0124   -1.1538    2.3984 H         1 <0>         0.3944
@<TRIPOS>BOND
     1    1    3 ar
     2    1    5 ar
     3    2    4 ar
     4    2    5 ar
     5    3    6 ar
     6    4    6 ar
     7    5   21 1
     8    6   40 1
     9    7   15 1
    10    7   34 am
    11    7   37 2
    12    8   27 1
    13    8   31 am
    14    8   38 2
    15    9   28 1
    16    9   35 am
    17    9   39 2
    18   10   32 1
    19   10   33 1
    20   10   36 1
    21   11   12 1
    22   11   16 1
    23   12   18 1
    24   13   15 1
    25   13   16 1
    26   14   17 1
    27   14   18 1
    28   15   31 1
    29   16   17 1
    30   17   31 1
    31   18   41 1
    32   19   29 1
    33   20   29 1
    34   21   28 1
    35   22   23 1
    36   22   25 1
    37   23   30 1
    38   24   27 1
    39   24   29 1
    40   25   36 1
    41   26   30 1
    42   26   42 1
    43   27   35 1
    44   28   43 1
    45   30   34 1
    46    1   44 1
    47    2   45 1
    48    3   46 1
    49    4   47 1
    50   11   48 1
    51   11   49 1
    52   12   50 1
    53   12   51 1
    54   13   52 1
    55   13   53 1
    56   14   54 1
    57   14   55 1
    58   15   56 1
    59   16   57 1
    60   17   58 1
    61   18   59 1
    62   19   60 1
    63   19   61 1
    64   19   62 1
    65   20   63 1
    66   20   64 1
    67   20   65 1
    68   21   66 1
    69   21   67 1
    70   22   68 1
    71   22   69 1
    72   23   70 1
    73   23   71 1
    74   24   72 1
    75   24   73 1
    76   25   74 1
    77   25   75 1
    78   26   76 1
    79   26   77 1
    80   27   78 1
    81   28   79 1
    82   29   80 1
    83   30   81 1
    84   32   82 1
    85   32   83 1
    86   33   84 1
    87   33   85 1
    88   34   86 1
    89   35   87 1
    90   36   88 1
    91   40   89 1
    92   41   90 1
    93   42   91 1
    94   43   92 1
@<TRIPOS>MOLECULE
1a2c_ligand_104
   92    94     0     0     0
SMALL
USER_CHARGES

mmff94s_NoEstat = 110.72
@<TRIPOS>ATOM
      1 C1          8.7134   -2.2414    5.6573 C.ar      1 <0>        -0.0708
      2 C2          7.1386   -3.9431    4.9781 C.ar      1 <0>        -0.0872
      3 C3          8.8315   -2.8496    6.9070 C.ar      1 <0>        -0.2241
      4 C4          7.2568   -4.5513    6.2278 C.ar      1 <0>        -0.1600
      5 C5          7.8686   -2.7964    4.7096 C.ar      1 <0>        -0.1356
      6 C6          8.1032   -4.0045    7.1923 C.ar      1 <0>         0.1290
      7 C7          0.1755   -1.0766    0.1327 C.2       1 <0>         0.6664
      8 C8          2.3785   -0.9757    2.2764 C.2       1 <0>         0.6651
      9 C9          5.2695   -1.7615    3.1198 C.2       1 <0>         0.6454
     10 C10        -2.5602    5.4959   -1.4070 C.cat     1 <0>         0.6349
     11 C11         2.4521   -5.3069   -0.2561 C.3       1 <0>        -0.0642
     12 C12         1.2413   -5.9691    0.3982 C.3       1 <0>        -0.0747
     13 C13         1.5734   -2.9393   -0.7647 C.3       1 <0>        -0.0873
     14 C14         1.0938   -4.1277    2.1072 C.3       1 <0>        -0.1371
     15 C15         1.5650   -1.6216    0.0133 C.3       1 <0>         0.0360
     16 C16         2.5597   -3.8106    0.0203 C.3       1 <0>        -0.0720
     17 C17         2.2934   -3.4012    1.4755 C.3       1 <0>         0.1201
     18 C18         1.1411   -5.6363    1.8853 C.3       1 <0>         0.1453
     19 C19         3.8896   -0.8379    6.4377 C.3       1 <0>        -0.0968
     20 C20         2.2599   -2.7349    6.3694 C.3       1 <0>        -0.0986
     21 C21         7.7412   -2.1384    3.3563 C.3       1 <0>        -0.0191
     22 C22        -0.8926    2.1585   -2.0178 C.3       1 <0>        -0.1009
     23 C23        -1.7042    1.3734   -0.9807 C.3       1 <0>        -0.0942
     24 C24         1.9925   -0.8489    4.7298 C.3       1 <0>        -0.0988
     25 C25        -0.8921    3.6522   -1.6998 C.3       1 <0>         0.1966
     26 C26        -2.3281   -0.5974   -2.5191 C.3       1 <0>         0.1128
     27 C27         2.8496   -1.4560    3.6253 C.3       1 <0>         0.0786
     28 C28         6.6222   -1.0920    3.3282 C.3       1 <0>         0.0744
     29 C29         2.4383   -1.2292    6.1562 C.3       1 <0>        -0.0678
     30 C30        -1.7203   -0.1547   -1.1858 C.3       1 <0>         0.1065
     31 N1          2.0322   -1.9586    1.3590 N.am      1 <0>        -0.4315
     32 N2         -3.8790    5.9383   -1.4136 N.pl3     1 <0>        -0.8671
     33 N3         -1.5440    6.3983   -1.1122 N.pl3     1 <0>        -0.8581
     34 N4         -0.3878   -0.7030   -1.0725 N.am      1 <0>        -0.5687
     35 N5          4.2184   -1.0331    3.6724 N.am      1 <0>        -0.5746
     36 N6         -2.2448    4.1563   -1.6927 N.pl3     1 <0>        -0.7533
     37 O1         -0.3509   -1.0007    1.2367 O.2       1 <0>        -0.5843
     38 O2          2.3230    0.2335    2.0409 O.2       1 <0>        -0.6812
     39 O3          5.1476   -2.8360    2.5359 O.2       1 <0>        -0.5788
     40 O4          8.2197   -4.5989    8.4112 O.3       1 <0>        -0.4938
     41 O5          2.2611   -6.1715    2.5852 O.3       1 <0>        -0.6030
     42 O6         -2.3150   -2.0161   -2.6084 O.3       1 <0>        -0.5860
     43 O7          6.8495   -0.2021    2.2447 O.3       1 <0>        -0.6021
     44 H1          9.2846   -1.3419    5.4443 H         1 <0>         0.1412
     45 H2          6.4769   -4.3764    4.2325 H         1 <0>         0.1451
     46 H3          9.4925   -2.4190    7.6540 H         1 <0>         0.1336
     47 H4          6.6874   -5.4515    6.4438 H         1 <0>         0.1567
     48 H5          3.3605   -5.7937    0.1218 H         1 <0>         0.0649
     49 H6          2.4319   -5.4897   -1.3370 H         1 <0>         0.0476
     50 H7          0.3241   -5.6545   -0.1129 H         1 <0>         0.0641
     51 H8          1.3294   -7.0545    0.2691 H         1 <0>         0.0484
     52 H9          0.5754   -3.3919   -0.8000 H         1 <0>         0.0596
     53 H10         1.8977   -2.7914   -1.8003 H         1 <0>         0.0757
     54 H11         1.0807   -3.9085    3.1823 H         1 <0>         0.0782
     55 H12         0.1523   -3.7376    1.7002 H         1 <0>         0.0812
     56 H13         2.2202   -0.8626   -0.4249 H         1 <0>         0.0731
     57 H14         3.5726   -3.4842   -0.2571 H         1 <0>         0.0511
     58 H15         3.1875   -3.5701    2.0864 H         1 <0>         0.0753
     59 H16         0.2435   -6.1003    2.3075 H         1 <0>         0.0427
     60 H17         4.2001   -1.1859    7.4289 H         1 <0>         0.0450
     61 H18         4.0203    0.2482    6.4220 H         1 <0>         0.0406
     62 H19         4.5693   -1.2752    5.6986 H         1 <0>         0.0274
     63 H20         2.8852   -3.3113    5.6789 H         1 <0>         0.0476
     64 H21         2.5335   -3.0185    7.3913 H         1 <0>         0.0170
     65 H22         1.2173   -3.0301    6.2104 H         1 <0>         0.0477
     66 H23         7.5546   -2.9097    2.5971 H         1 <0>         0.0814
     67 H24         8.7095   -1.6918    3.0973 H         1 <0>         0.0685
     68 H25         0.1421    1.7972   -2.0400 H         1 <0>         0.1016
     69 H26        -1.3056    2.0013   -3.0214 H         1 <0>         0.0660
     70 H27        -2.7398    1.7399   -0.9878 H         1 <0>         0.0512
     71 H28        -1.3141    1.5959    0.0208 H         1 <0>         0.0454
     72 H29         0.9469   -1.1516    4.5828 H         1 <0>         0.0575
     73 H30         2.0032    0.2464    4.6399 H         1 <0>         0.0743
     74 H31        -0.3092    4.1997   -2.4481 H         1 <0>         0.0662
     75 H32        -0.4371    3.8362   -0.7211 H         1 <0>         0.0622
     76 H33        -1.7808   -0.1883   -3.3747 H         1 <0>         0.0321
     77 H34        -3.3702   -0.2663   -2.5940 H         1 <0>         0.0204
     78 H35         2.8203   -2.5449    3.6159 H         1 <0>         0.0749
     79 H36         6.5944   -0.5059    4.2543 H         1 <0>         0.0719
     80 H37         1.7968   -0.7138    6.8816 H         1 <0>         0.0609
     81 H38        -2.3330   -0.5735   -0.3770 H         1 <0>         0.1063
     82 H39        -4.6538    5.3153   -1.6253 H         1 <0>         0.4792
     83 H40        -4.1057    6.9083   -1.2072 H         1 <0>         0.4819
     84 H41        -0.5691    6.1086   -1.0987 H         1 <0>         0.4802
     85 H42        -1.7492    7.3720   -0.9013 H         1 <0>         0.4826
     86 H43         0.1607   -0.8193   -1.9192 H         1 <0>         0.3101
     87 H44         4.4349   -0.1495    4.1364 H         1 <0>         0.3087
     88 H45        -3.0336    3.5329   -1.9034 H         1 <0>         0.4846
     89 H46         8.3834   -3.9314    9.0965 H         1 <0>         0.4194
     90 H47         2.7873   -5.4145    2.8873 H         1 <0>         0.4036
     91 H48        -1.4187   -2.2711   -2.8803 H         1 <0>         0.4114
     92 H49         7.7718   -0.3269    1.9673 H         1 <0>         0.3944
@<TRIPOS>BOND
     1    1    3 ar
     2    1    5 ar
     3    2    4 ar
     4    2    5 ar
     5    3    6 ar
     6    4    6 ar
     7    5   21 1
     8    6   40 1
     9    7   15 1
    10    7   34 am
    11    7   37 2
    12    8   27 1
    13    8   31 am
    14    8   38 2
    15    9   28 1
    16    9   35 am
    17    9   39 2
    18   10   32 1
    19   10   33 1
    20   10   36 1
    21   11   12 1
    22   11   16 1
    23   12   18 1
    24   13   15 1
    25   13   16 1
    26   14   17 1
    27   14   18 1
    28   15   31 1
    29   16   17 1
    30   17   31 1
    31   18   41 1
    32   19   29 1
    33   20   29 1
    34   21   28 1
    35   22   23 1
    36   22   25 1
    37   23   30 1
    38   24   27 1
    39   24   29 1
    40   25   36 1
    41   26   30 1
    42   26   42 1
    43   27   35 1
    44   28   43 1
    45   30   34 1
    46    1   44 1
    47    2   45 1
    48    3   46 1
    49    4   47 1
    50   11   48 1
    51   11   49 1
    52   12   50 1
    53   12   51 1
    54   13   52 1
    55   13   53 1
    56   14   54 1
    57   14   55 1
    58   15   56 1
    59   16   57 1
    60   17   58 1
    61   18   59 1
    62   19   60 1
    63   19   61 1
    64   19   62 1
    65   20   63 1
    66   20   64 1
    67   20   65 1
    68   21   66 1
    69   21   67 1
    70   22   68 1
    71   22   69 1
    72   23   70 1
    73   23   71 1
    74   24   72 1
    75   24   73 1
    76   25   74 1
    77   25   75 1
    78   26   76 1
    79   26   77 1
    80   27   78 1
    81   28   79 1
    82   29   80 1
    83   30   81 1
    84   32   82 1
    85   32   83 1
    86   33   84 1
    87   33   85 1
    88   34   86 1
    89   35   87 1
    90   36   88 1
    91   40   89 1
    92   41   90 1
    93   42   91 1
    94   43   92 1
@<TRIPOS>MOLECULE
1a2c_ligand_105
   92    94     0     0     0
SMALL
USER_CHARGES

mmff94s_NoEstat = 110.73
@<TRIPOS>ATOM
      1 C1          8.6458    1.5507    3.5275 C.ar      1 <0>        -0.0708
      2 C2          8.6534    0.6081    1.3030 C.ar      1 <0>        -0.0872
      3 C3          9.9381    2.0357    3.3263 C.ar      1 <0>        -0.2241
      4 C4          9.9457    1.0931    1.1018 C.ar      1 <0>        -0.1600
      5 C5          8.0208    0.8434    2.5131 C.ar      1 <0>        -0.1356
      6 C6         10.5880    1.8070    2.1135 C.ar      1 <0>         0.1290
      7 C7          0.1755   -1.0766    0.1327 C.2       1 <0>         0.6664
      8 C8          2.3785   -0.9757    2.2764 C.2       1 <0>         0.6651
      9 C9          5.2695   -1.7615    3.1198 C.2       1 <0>         0.6454
     10 C10         0.2323    5.6394    2.4404 C.cat     1 <0>         0.6349
     11 C11         2.4521   -5.3069   -0.2561 C.3       1 <0>        -0.0642
     12 C12         1.2413   -5.9691    0.3982 C.3       1 <0>        -0.0747
     13 C13         1.5734   -2.9393   -0.7647 C.3       1 <0>        -0.0873
     14 C14         1.0938   -4.1277    2.1072 C.3       1 <0>        -0.1371
     15 C15         1.5650   -1.6216    0.0133 C.3       1 <0>         0.0360
     16 C16         2.5597   -3.8106    0.0203 C.3       1 <0>        -0.0720
     17 C17         2.2934   -3.4012    1.4755 C.3       1 <0>         0.1201
     18 C18         1.1411   -5.6363    1.8853 C.3       1 <0>         0.1453
     19 C19         3.8896   -0.8379    6.4377 C.3       1 <0>        -0.0968
     20 C20         2.2599   -2.7349    6.3694 C.3       1 <0>        -0.0986
     21 C21         6.6216    0.3189    2.7306 C.3       1 <0>        -0.0191
     22 C22        -0.6430    2.4326    0.6399 C.3       1 <0>        -0.1009
     23 C23        -1.2979    2.0260   -0.6854 C.3       1 <0>        -0.0942
     24 C24         1.9925   -0.8489    4.7298 C.3       1 <0>        -0.0988
     25 C25        -0.5996    3.9518    0.7888 C.3       1 <0>         0.1966
     26 C26        -2.1127    0.1273   -2.2253 C.3       1 <0>         0.1128
     27 C27         2.8496   -1.4560    3.6253 C.3       1 <0>         0.0786
     28 C28         6.6222   -1.0920    3.3282 C.3       1 <0>         0.0744
     29 C29         2.4383   -1.2292    6.1562 C.3       1 <0>        -0.0678
     30 C30        -1.4370    0.5062   -0.9051 C.3       1 <0>         0.1065
     31 N1          2.0322   -1.9586    1.3590 N.am      1 <0>        -0.4315
     32 N2          0.8416    5.9360    3.6551 N.pl3     1 <0>        -0.8671
     33 N3         -0.1798    6.6813    1.6165 N.pl3     1 <0>        -0.8581
     34 N4         -0.1481   -0.1440   -0.8342 N.am      1 <0>        -0.5687
     35 N5          4.2184   -1.0331    3.6724 N.am      1 <0>        -0.5746
     36 N6          0.0297    4.3079    2.0383 N.pl3     1 <0>        -0.7533
     37 O1         -0.5534   -1.4727    1.0347 O.2       1 <0>        -0.5843
     38 O2          2.3230    0.2335    2.0409 O.2       1 <0>        -0.6812
     39 O3          5.1476   -2.8360    2.5359 O.2       1 <0>        -0.5788
     40 O4         11.8484    2.2817    1.9166 O.3       1 <0>        -0.4938
     41 O5          2.2611   -6.1715    2.5852 O.3       1 <0>        -0.6030
     42 O6         -2.2112   -1.2870   -2.3289 O.3       1 <0>        -0.5860
     43 O7          6.8631   -1.0017    4.7250 O.3       1 <0>        -0.6021
     44 H1          8.1477    1.7337    4.4757 H         1 <0>         0.1412
     45 H2          8.1605    0.0531    0.5089 H         1 <0>         0.1451
     46 H3         10.4330    2.5911    4.1181 H         1 <0>         0.1336
     47 H4         10.4465    0.9125    0.1543 H         1 <0>         0.1567
     48 H5          3.3605   -5.7937    0.1218 H         1 <0>         0.0649
     49 H6          2.4319   -5.4897   -1.3370 H         1 <0>         0.0476
     50 H7          0.3241   -5.6545   -0.1129 H         1 <0>         0.0641
     51 H8          1.3294   -7.0545    0.2691 H         1 <0>         0.0484
     52 H9          0.5754   -3.3919   -0.8000 H         1 <0>         0.0596
     53 H10         1.8977   -2.7914   -1.8003 H         1 <0>         0.0757
     54 H11         1.0807   -3.9085    3.1823 H         1 <0>         0.0782
     55 H12         0.1523   -3.7376    1.7002 H         1 <0>         0.0812
     56 H13         2.2202   -0.8626   -0.4249 H         1 <0>         0.0731
     57 H14         3.5726   -3.4842   -0.2571 H         1 <0>         0.0511
     58 H15         3.1875   -3.5701    2.0864 H         1 <0>         0.0753
     59 H16         0.2435   -6.1003    2.3075 H         1 <0>         0.0427
     60 H17         4.2001   -1.1859    7.4289 H         1 <0>         0.0450
     61 H18         4.0203    0.2482    6.4220 H         1 <0>         0.0406
     62 H19         4.5693   -1.2752    5.6986 H         1 <0>         0.0274
     63 H20         2.8852   -3.3113    5.6789 H         1 <0>         0.0476
     64 H21         2.5335   -3.0185    7.3913 H         1 <0>         0.0170
     65 H22         1.2173   -3.0301    6.2104 H         1 <0>         0.0477
     66 H23         6.0831    0.3221    1.7735 H         1 <0>         0.0814
     67 H24         6.0853    1.0243    3.3778 H         1 <0>         0.0685
     68 H25        -1.1995    2.0063    1.4826 H         1 <0>         0.1016
     69 H26         0.3766    2.0329    0.6979 H         1 <0>         0.0660
     70 H27        -0.7150    2.4492   -1.5148 H         1 <0>         0.0512
     71 H28        -2.2909    2.4892   -0.7497 H         1 <0>         0.0454
     72 H29         0.9469   -1.1516    4.5828 H         1 <0>         0.0575
     73 H30         2.0032    0.2464    4.6399 H         1 <0>         0.0743
     74 H31        -1.6136    4.3648    0.7674 H         1 <0>         0.0662
     75 H32        -0.0373    4.4024   -0.0355 H         1 <0>         0.0622
     76 H33        -1.5587    0.5035   -3.0917 H         1 <0>         0.0321
     77 H34        -3.1279    0.5382   -2.2680 H         1 <0>         0.0204
     78 H35         2.8203   -2.5449    3.6159 H         1 <0>         0.0749
     79 H36         7.4053   -1.7180    2.8841 H         1 <0>         0.0719
     80 H37         1.7968   -0.7138    6.8816 H         1 <0>         0.0609
     81 H38        -2.0581    0.1260   -0.0837 H         1 <0>         0.1063
     82 H39         1.1571    5.2076    4.2901 H         1 <0>         0.4792
     83 H40         0.9871    6.9003    3.9451 H         1 <0>         0.4819
     84 H41        -0.6286    6.5001    0.7219 H         1 <0>         0.4802
     85 H42        -0.0422    7.6522    1.8867 H         1 <0>         0.4826
     86 H43         0.5534    0.0962   -1.5282 H         1 <0>         0.3101
     87 H44         4.4349   -0.1495    4.1364 H         1 <0>         0.3087
     88 H45         0.3532    3.5780    2.6847 H         1 <0>         0.4846
     89 H46        12.3411    2.2846    2.7528 H         1 <0>         0.4194
     90 H47         2.7873   -5.4145    2.8873 H         1 <0>         0.4036
     91 H48        -1.3448   -1.6067   -2.6281 H         1 <0>         0.4114
     92 H49         7.2149   -0.1122    4.8926 H         1 <0>         0.3944
@<TRIPOS>BOND
     1    1    3 ar
     2    1    5 ar
     3    2    4 ar
     4    2    5 ar
     5    3    6 ar
     6    4    6 ar
     7    5   21 1
     8    6   40 1
     9    7   15 1
    10    7   34 am
    11    7   37 2
    12    8   27 1
    13    8   31 am
    14    8   38 2
    15    9   28 1
    16    9   35 am
    17    9   39 2
    18   10   32 1
    19   10   33 1
    20   10   36 1
    21   11   12 1
    22   11   16 1
    23   12   18 1
    24   13   15 1
    25   13   16 1
    26   14   17 1
    27   14   18 1
    28   15   31 1
    29   16   17 1
    30   17   31 1
    31   18   41 1
    32   19   29 1
    33   20   29 1
    34   21   28 1
    35   22   23 1
    36   22   25 1
    37   23   30 1
    38   24   27 1
    39   24   29 1
    40   25   36 1
    41   26   30 1
    42   26   42 1
    43   27   35 1
    44   28   43 1
    45   30   34 1
    46    1   44 1
    47    2   45 1
    48    3   46 1
    49    4   47 1
    50   11   48 1
    51   11   49 1
    52   12   50 1
    53   12   51 1
    54   13   52 1
    55   13   53 1
    56   14   54 1
    57   14   55 1
    58   15   56 1
    59   16   57 1
    60   17   58 1
    61   18   59 1
    62   19   60 1
    63   19   61 1
    64   19   62 1
    65   20   63 1
    66   20   64 1
    67   20   65 1
    68   21   66 1
    69   21   67 1
    70   22   68 1
    71   22   69 1
    72   23   70 1
    73   23   71 1
    74   24   72 1
    75   24   73 1
    76   25   74 1
    77   25   75 1
    78   26   76 1
    79   26   77 1
    80   27   78 1
    81   28   79 1
    82   29   80 1
    83   30   81 1
    84   32   82 1
    85   32   83 1
    86   33   84 1
    87   33   85 1
    88   34   86 1
    89   35   87 1
    90   36   88 1
    91   40   89 1
    92   41   90 1
    93   42   91 1
    94   43   92 1
@<TRIPOS>MOLECULE
1a2c_ligand_106
   92    94     0     0     0
SMALL
USER_CHARGES

mmff94s_NoEstat = 110.86
@<TRIPOS>ATOM
      1 C1          9.6781   -0.8835    4.6459 C.ar      1 <0>        -0.0708
      2 C2          8.0683    0.3374    5.9707 C.ar      1 <0>        -0.0872
      3 C3         10.6899   -0.0331    5.0917 C.ar      1 <0>        -0.2241
      4 C4          9.0801    1.1878    6.4165 C.ar      1 <0>        -0.1600
      5 C5          8.3809   -0.6869    5.0914 C.ar      1 <0>        -0.1356
      6 C6         10.3909    1.0026    5.9770 C.ar      1 <0>         0.1290
      7 C7          0.1755   -1.0766    0.1327 C.2       1 <0>         0.6664
      8 C8          2.3785   -0.9757    2.2764 C.2       1 <0>         0.6651
      9 C9          5.2695   -1.7615    3.1198 C.2       1 <0>         0.6454
     10 C10         1.4164    4.4964    2.1699 C.cat     1 <0>         0.6349
     11 C11         2.4521   -5.3069   -0.2561 C.3       1 <0>        -0.0642
     12 C12         1.2413   -5.9691    0.3982 C.3       1 <0>        -0.0747
     13 C13         1.5734   -2.9393   -0.7647 C.3       1 <0>        -0.0873
     14 C14         1.0938   -4.1277    2.1072 C.3       1 <0>        -0.1371
     15 C15         1.5650   -1.6216    0.0133 C.3       1 <0>         0.0360
     16 C16         2.5597   -3.8106    0.0203 C.3       1 <0>        -0.0720
     17 C17         2.2934   -3.4012    1.4755 C.3       1 <0>         0.1201
     18 C18         1.1411   -5.6363    1.8853 C.3       1 <0>         0.1453
     19 C19         3.8896   -0.8379    6.4377 C.3       1 <0>        -0.0968
     20 C20         2.2599   -2.7349    6.3694 C.3       1 <0>        -0.0986
     21 C21         7.2857   -1.6080    4.6093 C.3       1 <0>        -0.0191
     22 C22        -0.6430    2.4326    0.6399 C.3       1 <0>        -0.1009
     23 C23        -1.2979    2.0260   -0.6854 C.3       1 <0>        -0.0942
     24 C24         1.9925   -0.8489    4.7298 C.3       1 <0>        -0.0988
     25 C25        -0.5996    3.9518    0.7888 C.3       1 <0>         0.1966
     26 C26        -2.1127    0.1273   -2.2253 C.3       1 <0>         0.1128
     27 C27         2.8496   -1.4560    3.6253 C.3       1 <0>         0.0786
     28 C28         6.6222   -1.0920    3.3282 C.3       1 <0>         0.0744
     29 C29         2.4383   -1.2292    6.1562 C.3       1 <0>        -0.0678
     30 C30        -1.4370    0.5062   -0.9051 C.3       1 <0>         0.1065
     31 N1          2.0322   -1.9586    1.3590 N.am      1 <0>        -0.4315
     32 N2          1.9793    4.8414    3.3942 N.pl3     1 <0>        -0.8671
     33 N3          2.2443    4.3372    1.0639 N.pl3     1 <0>        -0.8581
     34 N4         -0.1481   -0.1440   -0.8342 N.am      1 <0>        -0.5687
     35 N5          4.2184   -1.0331    3.6724 N.am      1 <0>        -0.5746
     36 N6          0.0297    4.3079    2.0383 N.pl3     1 <0>        -0.7533
     37 O1         -0.5534   -1.4727    1.0347 O.2       1 <0>        -0.5843
     38 O2          2.3230    0.2335    2.0409 O.2       1 <0>        -0.6812
     39 O3          5.1476   -2.8360    2.5359 O.2       1 <0>        -0.5788
     40 O4         11.3785    1.8314    6.4133 O.3       1 <0>        -0.4938
     41 O5          2.2611   -6.1715    2.5852 O.3       1 <0>        -0.6030
     42 O6         -1.3491    0.6212   -3.3179 O.3       1 <0>        -0.5860
     43 O7          7.4509   -1.4094    2.2191 O.3       1 <0>        -0.6021
     44 H1          9.9207   -1.6873    3.9562 H         1 <0>         0.1412
     45 H2          7.0498    0.4890    6.3187 H         1 <0>         0.1451
     46 H3         11.7089   -0.1826    4.7459 H         1 <0>         0.1336
     47 H4          8.8410    1.9923    7.1070 H         1 <0>         0.1567
     48 H5          3.3605   -5.7937    0.1218 H         1 <0>         0.0649
     49 H6          2.4319   -5.4897   -1.3370 H         1 <0>         0.0476
     50 H7          0.3241   -5.6545   -0.1129 H         1 <0>         0.0641
     51 H8          1.3294   -7.0545    0.2691 H         1 <0>         0.0484
     52 H9          0.5754   -3.3919   -0.8000 H         1 <0>         0.0596
     53 H10         1.8977   -2.7914   -1.8003 H         1 <0>         0.0757
     54 H11         1.0807   -3.9085    3.1823 H         1 <0>         0.0782
     55 H12         0.1523   -3.7376    1.7002 H         1 <0>         0.0812
     56 H13         2.2202   -0.8626   -0.4249 H         1 <0>         0.0731
     57 H14         3.5726   -3.4842   -0.2571 H         1 <0>         0.0511
     58 H15         3.1875   -3.5701    2.0864 H         1 <0>         0.0753
     59 H16         0.2435   -6.1003    2.3075 H         1 <0>         0.0427
     60 H17         4.2001   -1.1859    7.4289 H         1 <0>         0.0450
     61 H18         4.0203    0.2482    6.4220 H         1 <0>         0.0406
     62 H19         4.5693   -1.2752    5.6986 H         1 <0>         0.0274
     63 H20         2.8852   -3.3113    5.6789 H         1 <0>         0.0476
     64 H21         2.5335   -3.0185    7.3913 H         1 <0>         0.0170
     65 H22         1.2173   -3.0301    6.2104 H         1 <0>         0.0477
     66 H23         6.5349   -1.7208    5.4029 H         1 <0>         0.0814
     67 H24         7.7154   -2.6065    4.4600 H         1 <0>         0.0685
     68 H25        -1.1995    2.0063    1.4826 H         1 <0>         0.1016
     69 H26         0.3766    2.0329    0.6979 H         1 <0>         0.0660
     70 H27        -0.7150    2.4492   -1.5148 H         1 <0>         0.0512
     71 H28        -2.2909    2.4892   -0.7497 H         1 <0>         0.0454
     72 H29         0.9469   -1.1516    4.5828 H         1 <0>         0.0575
     73 H30         2.0032    0.2464    4.6399 H         1 <0>         0.0743
     74 H31        -1.6136    4.3648    0.7674 H         1 <0>         0.0662
     75 H32        -0.0373    4.4024   -0.0355 H         1 <0>         0.0622
     76 H33        -3.1276    0.5322   -2.2969 H         1 <0>         0.0321
     77 H34        -2.1750   -0.9624   -2.3250 H         1 <0>         0.0204
     78 H35         2.8203   -2.5449    3.6159 H         1 <0>         0.0749
     79 H36         6.4849   -0.0045    3.3546 H         1 <0>         0.0719
     80 H37         1.7968   -0.7138    6.8816 H         1 <0>         0.0609
     81 H38        -2.0581    0.1260   -0.0837 H         1 <0>         0.1063
     82 H39         1.4134    4.9703    4.2287 H         1 <0>         0.4792
     83 H40         2.9831    4.9781    3.4877 H         1 <0>         0.4819
     84 H41         1.8659    4.0854    0.1539 H         1 <0>         0.4802
     85 H42         3.2505    4.4675    1.1363 H         1 <0>         0.4826
     86 H43         0.5534    0.0962   -1.5282 H         1 <0>         0.3101
     87 H44         4.4349   -0.1495    4.1364 H         1 <0>         0.3087
     88 H45        -0.5346    4.4380    2.8867 H         1 <0>         0.4846
     89 H46        12.0516    1.9448    5.7234 H         1 <0>         0.4194
     90 H47         2.7873   -5.4145    2.8873 H         1 <0>         0.4036
     91 H48        -1.5776    1.5595   -3.4176 H         1 <0>         0.4114
     92 H49         8.3251   -1.6348    2.5769 H         1 <0>         0.3944
@<TRIPOS>BOND
     1    1    3 ar
     2    1    5 ar
     3    2    4 ar
     4    2    5 ar
     5    3    6 ar
     6    4    6 ar
     7    5   21 1
     8    6   40 1
     9    7   15 1
    10    7   34 am
    11    7   37 2
    12    8   27 1
    13    8   31 am
    14    8   38 2
    15    9   28 1
    16    9   35 am
    17    9   39 2
    18   10   32 1
    19   10   33 1
    20   10   36 1
    21   11   12 1
    22   11   16 1
    23   12   18 1
    24   13   15 1
    25   13   16 1
    26   14   17 1
    27   14   18 1
    28   15   31 1
    29   16   17 1
    30   17   31 1
    31   18   41 1
    32   19   29 1
    33   20   29 1
    34   21   28 1
    35   22   23 1
    36   22   25 1
    37   23   30 1
    38   24   27 1
    39   24   29 1
    40   25   36 1
    41   26   30 1
    42   26   42 1
    43   27   35 1
    44   28   43 1
    45   30   34 1
    46    1   44 1
    47    2   45 1
    48    3   46 1
    49    4   47 1
    50   11   48 1
    51   11   49 1
    52   12   50 1
    53   12   51 1
    54   13   52 1
    55   13   53 1
    56   14   54 1
    57   14   55 1
    58   15   56 1
    59   16   57 1
    60   17   58 1
    61   18   59 1
    62   19   60 1
    63   19   61 1
    64   19   62 1
    65   20   63 1
    66   20   64 1
    67   20   65 1
    68   21   66 1
    69   21   67 1
    70   22   68 1
    71   22   69 1
    72   23   70 1
    73   23   71 1
    74   24   72 1
    75   24   73 1
    76   25   74 1
    77   25   75 1
    78   26   76 1
    79   26   77 1
    80   27   78 1
    81   28   79 1
    82   29   80 1
    83   30   81 1
    84   32   82 1
    85   32   83 1
    86   33   84 1
    87   33   85 1
    88   34   86 1
    89   35   87 1
    90   36   88 1
    91   40   89 1
    92   41   90 1
    93   42   91 1
    94   43   92 1
@<TRIPOS>MOLECULE
1a2c_ligand_107
   92    94     0     0     0
SMALL
USER_CHARGES

mmff94s_NoEstat = 110.88
@<TRIPOS>ATOM
      1 C1          8.6458    1.5507    3.5275 C.ar      1 <0>        -0.0708
      2 C2          8.6534    0.6081    1.3030 C.ar      1 <0>        -0.0872
      3 C3          9.9381    2.0357    3.3263 C.ar      1 <0>        -0.2241
      4 C4          9.9457    1.0931    1.1018 C.ar      1 <0>        -0.1600
      5 C5          8.0208    0.8434    2.5131 C.ar      1 <0>        -0.1356
      6 C6         10.5880    1.8070    2.1135 C.ar      1 <0>         0.1290
      7 C7          0.1755   -1.0766    0.1327 C.2       1 <0>         0.6664
      8 C8          2.3785   -0.9757    2.2764 C.2       1 <0>         0.6651
      9 C9          5.2695   -1.7615    3.1198 C.2       1 <0>         0.6454
     10 C10         0.0177    5.1861   -4.1496 C.cat     1 <0>         0.6349
     11 C11         2.4521   -5.3069   -0.2561 C.3       1 <0>        -0.0642
     12 C12         1.2413   -5.9691    0.3982 C.3       1 <0>        -0.0747
     13 C13         1.5734   -2.9393   -0.7647 C.3       1 <0>        -0.0873
     14 C14         1.0938   -4.1277    2.1072 C.3       1 <0>        -0.1371
     15 C15         1.5650   -1.6216    0.0133 C.3       1 <0>         0.0360
     16 C16         2.5597   -3.8106    0.0203 C.3       1 <0>        -0.0720
     17 C17         2.2934   -3.4012    1.4755 C.3       1 <0>         0.1201
     18 C18         1.1411   -5.6363    1.8853 C.3       1 <0>         0.1453
     19 C19         3.8896   -0.8379    6.4377 C.3       1 <0>        -0.0968
     20 C20         2.2599   -2.7349    6.3694 C.3       1 <0>        -0.0986
     21 C21         6.6216    0.3189    2.7306 C.3       1 <0>        -0.0191
     22 C22        -0.8155    2.0502   -2.2095 C.3       1 <0>        -0.1009
     23 C23        -1.7941    0.8762   -2.3301 C.3       1 <0>        -0.0942
     24 C24         1.9925   -0.8489    4.7298 C.3       1 <0>        -0.0988
     25 C25        -1.0015    3.0414   -3.3563 C.3       1 <0>         0.1966
     26 C26        -2.7214   -1.3050   -1.3187 C.3       1 <0>         0.1128
     27 C27         2.8496   -1.4560    3.6253 C.3       1 <0>         0.0786
     28 C28         6.6222   -1.0920    3.3282 C.3       1 <0>         0.0744
     29 C29         2.4383   -1.2292    6.1562 C.3       1 <0>        -0.0678
     30 C30        -1.7203   -0.1547   -1.1858 C.3       1 <0>         0.1065
     31 N1          2.0322   -1.9586    1.3590 N.am      1 <0>        -0.4315
     32 N2          0.9368    6.2166   -3.9817 N.pl3     1 <0>        -0.8671
     33 N3         -0.8308    5.2073   -5.2513 N.pl3     1 <0>        -0.8581
     34 N4         -0.3878   -0.7030   -1.0725 N.am      1 <0>        -0.5687
     35 N5          4.2184   -1.0331    3.6724 N.am      1 <0>        -0.5746
     36 N6         -0.0630    4.1305   -3.2250 N.pl3     1 <0>        -0.7533
     37 O1         -0.3509   -1.0007    1.2367 O.2       1 <0>        -0.5843
     38 O2          2.3230    0.2335    2.0409 O.2       1 <0>        -0.6812
     39 O3          5.1476   -2.8360    2.5359 O.2       1 <0>        -0.5788
     40 O4         11.8484    2.2817    1.9166 O.3       1 <0>        -0.4938
     41 O5          2.2611   -6.1715    2.5852 O.3       1 <0>        -0.6030
     42 O6         -2.4752   -2.0231   -2.5206 O.3       1 <0>        -0.5860
     43 O7          6.8631   -1.0017    4.7250 O.3       1 <0>        -0.6021
     44 H1          8.1477    1.7337    4.4757 H         1 <0>         0.1412
     45 H2          8.1605    0.0531    0.5089 H         1 <0>         0.1451
     46 H3         10.4330    2.5911    4.1181 H         1 <0>         0.1336
     47 H4         10.4465    0.9125    0.1543 H         1 <0>         0.1567
     48 H5          3.3605   -5.7937    0.1218 H         1 <0>         0.0649
     49 H6          2.4319   -5.4897   -1.3370 H         1 <0>         0.0476
     50 H7          0.3241   -5.6545   -0.1129 H         1 <0>         0.0641
     51 H8          1.3294   -7.0545    0.2691 H         1 <0>         0.0484
     52 H9          0.5754   -3.3919   -0.8000 H         1 <0>         0.0596
     53 H10         1.8977   -2.7914   -1.8003 H         1 <0>         0.0757
     54 H11         1.0807   -3.9085    3.1823 H         1 <0>         0.0782
     55 H12         0.1523   -3.7376    1.7002 H         1 <0>         0.0812
     56 H13         2.2202   -0.8626   -0.4249 H         1 <0>         0.0731
     57 H14         3.5726   -3.4842   -0.2571 H         1 <0>         0.0511
     58 H15         3.1875   -3.5701    2.0864 H         1 <0>         0.0753
     59 H16         0.2435   -6.1003    2.3075 H         1 <0>         0.0427
     60 H17         4.2001   -1.1859    7.4289 H         1 <0>         0.0450
     61 H18         4.0203    0.2482    6.4220 H         1 <0>         0.0406
     62 H19         4.5693   -1.2752    5.6986 H         1 <0>         0.0274
     63 H20         2.8852   -3.3113    5.6789 H         1 <0>         0.0476
     64 H21         2.5335   -3.0185    7.3913 H         1 <0>         0.0170
     65 H22         1.2173   -3.0301    6.2104 H         1 <0>         0.0477
     66 H23         6.0831    0.3221    1.7735 H         1 <0>         0.0814
     67 H24         6.0853    1.0243    3.3778 H         1 <0>         0.0685
     68 H25        -0.9672    2.5721   -1.2575 H         1 <0>         0.1016
     69 H26         0.2183    1.6845   -2.2100 H         1 <0>         0.0660
     70 H27        -1.6130    0.3584   -3.2819 H         1 <0>         0.0512
     71 H28        -2.8171    1.2691   -2.3922 H         1 <0>         0.0454
     72 H29         0.9469   -1.1516    4.5828 H         1 <0>         0.0575
     73 H30         2.0032    0.2464    4.6399 H         1 <0>         0.0743
     74 H31        -2.0203    3.4431   -3.3499 H         1 <0>         0.0662
     75 H32        -0.8427    2.5473   -4.3203 H         1 <0>         0.0622
     76 H33        -3.7565   -0.9478   -1.3308 H         1 <0>         0.0321
     77 H34        -2.6144   -2.0048   -0.4820 H         1 <0>         0.0204
     78 H35         2.8203   -2.5449    3.6159 H         1 <0>         0.0749
     79 H36         7.4053   -1.7180    2.8841 H         1 <0>         0.0719
     80 H37         1.7968   -0.7138    6.8816 H         1 <0>         0.0609
     81 H38        -1.9472    0.3883   -0.2591 H         1 <0>         0.1063
     82 H39         1.5752    6.2439   -3.1911 H         1 <0>         0.4792
     83 H40         0.9937    6.9803   -4.6514 H         1 <0>         0.4819
     84 H41        -1.5145    4.4701   -5.4045 H         1 <0>         0.4802
     85 H42        -0.7890    5.9606   -5.9336 H         1 <0>         0.4826
     86 H43         0.1607   -0.8193   -1.9192 H         1 <0>         0.3101
     87 H44         4.4349   -0.1495    4.1364 H         1 <0>         0.3087
     88 H45         0.5869    4.1646   -2.4302 H         1 <0>         0.4846
     89 H46        12.3411    2.2846    2.7528 H         1 <0>         0.4194
     90 H47         2.7873   -5.4145    2.8873 H         1 <0>         0.4036
     91 H48        -2.8906   -1.5183   -3.2383 H         1 <0>         0.4114
     92 H49         7.2149   -0.1122    4.8926 H         1 <0>         0.3944
@<TRIPOS>BOND
     1    1    3 ar
     2    1    5 ar
     3    2    4 ar
     4    2    5 ar
     5    3    6 ar
     6    4    6 ar
     7    5   21 1
     8    6   40 1
     9    7   15 1
    10    7   34 am
    11    7   37 2
    12    8   27 1
    13    8   31 am
    14    8   38 2
    15    9   28 1
    16    9   35 am
    17    9   39 2
    18   10   32 1
    19   10   33 1
    20   10   36 1
    21   11   12 1
    22   11   16 1
    23   12   18 1
    24   13   15 1
    25   13   16 1
    26   14   17 1
    27   14   18 1
    28   15   31 1
    29   16   17 1
    30   17   31 1
    31   18   41 1
    32   19   29 1
    33   20   29 1
    34   21   28 1
    35   22   23 1
    36   22   25 1
    37   23   30 1
    38   24   27 1
    39   24   29 1
    40   25   36 1
    41   26   30 1
    42   26   42 1
    43   27   35 1
    44   28   43 1
    45   30   34 1
    46    1   44 1
    47    2   45 1
    48    3   46 1
    49    4   47 1
    50   11   48 1
    51   11   49 1
    52   12   50 1
    53   12   51 1
    54   13   52 1
    55   13   53 1
    56   14   54 1
    57   14   55 1
    58   15   56 1
    59   16   57 1
    60   17   58 1
    61   18   59 1
    62   19   60 1
    63   19   61 1
    64   19   62 1
    65   20   63 1
    66   20   64 1
    67   20   65 1
    68   21   66 1
    69   21   67 1
    70   22   68 1
    71   22   69 1
    72   23   70 1
    73   23   71 1
    74   24   72 1
    75   24   73 1
    76   25   74 1
    77   25   75 1
    78   26   76 1
    79   26   77 1
    80   27   78 1
    81   28   79 1
    82   29   80 1
    83   30   81 1
    84   32   82 1
    85   32   83 1
    86   33   84 1
    87   33   85 1
    88   34   86 1
    89   35   87 1
    90   36   88 1
    91   40   89 1
    92   41   90 1
    93   42   91 1
    94   43   92 1
@<TRIPOS>MOLECULE
1a2c_ligand_108
   92    94     0     0     0
SMALL
USER_CHARGES

mmff94s_NoEstat = 110.89
@<TRIPOS>ATOM
      1 C1         -7.7819   -5.3134   -0.2446 C.ar      1 <0>        -0.0708
      2 C2         -6.4637   -5.0735   -2.2550 C.ar      1 <0>        -0.0872
      3 C3         -8.7792   -5.9591   -0.9756 C.ar      1 <0>        -0.2241
      4 C4         -7.4609   -5.7192   -2.9860 C.ar      1 <0>        -0.1600
      5 C5         -6.6376   -4.8793   -0.8941 C.ar      1 <0>        -0.1356
      6 C6         -8.6187   -6.1620   -2.3463 C.ar      1 <0>         0.1290
      7 C7         -0.0512   -1.0561    0.2993 C.2       1 <0>         0.6664
      8 C8         -1.8469   -3.0457    2.1630 C.2       1 <0>         0.6651
      9 C9         -4.4743   -1.9575    0.3333 C.2       1 <0>         0.6454
     10 C10        -1.3546    6.1439   -1.7010 C.cat     1 <0>         0.6349
     11 C11         2.5186   -3.1911    0.6823 C.3       1 <0>        -0.0642
     12 C12         2.4580   -4.6414    0.2376 C.3       1 <0>        -0.0747
     13 C13         1.4874   -1.4827    2.2418 C.3       1 <0>        -0.0873
     14 C14         0.4946   -5.0934    1.7133 C.3       1 <0>        -0.1371
     15 C15         0.0412   -1.4176    1.7503 C.3       1 <0>         0.0360
     16 C16         1.8865   -2.9529    2.0632 C.3       1 <0>        -0.0720
     17 C17         0.5665   -3.7001    2.3454 C.3       1 <0>         0.1201
     18 C18         1.0248   -5.1525    0.2868 C.3       1 <0>         0.1453
     19 C19        -5.3726   -0.5418    3.1302 C.3       1 <0>        -0.0968
     20 C20        -3.4397    1.0389    2.9738 C.3       1 <0>        -0.0986
     21 C21        -5.5577   -4.1810   -0.1027 C.3       1 <0>        -0.0191
     22 C22        -0.5396    2.6263   -2.8210 C.3       1 <0>        -0.1009
     23 C23        -0.4337    2.0012   -1.4250 C.3       1 <0>        -0.0942
     24 C24        -2.9973   -1.3585    3.5851 C.3       1 <0>        -0.0988
     25 C25        -1.3940    3.8917   -2.7937 C.3       1 <0>         0.1966
     26 C26         1.9058    0.9774   -1.7696 C.3       1 <0>         0.1128
     27 C27        -2.7865   -1.8644    2.1628 C.3       1 <0>         0.0786
     28 C28        -5.7663   -2.6636   -0.0588 C.3       1 <0>         0.0744
     29 C29        -3.9969   -0.1898    3.6979 C.3       1 <0>        -0.0678
     30 C30         0.4555    0.7445   -1.3388 C.3       1 <0>         0.1065
     31 N1         -0.4979   -2.7598    1.9615 N.am      1 <0>        -0.4315
     32 N2         -0.7507    7.0530   -0.8386 N.pl3     1 <0>        -0.8671
     33 N3         -2.5221    6.5095   -2.3623 N.pl3     1 <0>        -0.8581
     34 N4          0.4455    0.1980   -0.0008 N.am      1 <0>        -0.5687
     35 N5         -3.9799   -2.3853    1.5634 N.am      1 <0>        -0.5746
     36 N6         -0.8022    4.8685   -1.9107 N.pl3     1 <0>        -0.7533
     37 O1         -0.5362   -1.8555   -0.4928 O.2       1 <0>        -0.5843
     38 O2         -2.2998   -4.1783    2.3409 O.2       1 <0>        -0.6812
     39 O3         -3.9527   -1.0962   -0.3713 O.2       1 <0>        -0.5788
     40 O4         -9.5911   -6.7934   -3.0592 O.3       1 <0>        -0.4938
     41 O5          0.9879   -6.5072   -0.1510 O.3       1 <0>        -0.6030
     42 O6          2.5087    1.9525   -0.9290 O.3       1 <0>        -0.5860
     43 O7         -6.7522   -2.3613    0.9179 O.3       1 <0>        -0.6021
     44 H1         -7.9160   -5.1597    0.8227 H         1 <0>         0.1412
     45 H2         -5.5648   -4.7322   -2.7618 H         1 <0>         0.1451
     46 H3         -9.6786   -6.3017   -0.4716 H         1 <0>         0.1336
     47 H4         -7.3297   -5.8752   -4.0535 H         1 <0>         0.1567
     48 H5          3.5627   -2.8549    0.7003 H         1 <0>         0.0649
     49 H6          2.0259   -2.5829   -0.0837 H         1 <0>         0.0476
     50 H7          2.8567   -4.7427   -0.7790 H         1 <0>         0.0641
     51 H8          3.1032   -5.2618    0.8729 H         1 <0>         0.0484
     52 H9          2.1569   -0.7868    1.7257 H         1 <0>         0.0596
     53 H10         1.5124   -1.2395    3.3116 H         1 <0>         0.0757
     54 H11         1.0921   -5.7802    2.3299 H         1 <0>         0.0782
     55 H12        -0.5175   -5.5090    1.7393 H         1 <0>         0.0812
     56 H13        -0.5378   -0.6778    2.3126 H         1 <0>         0.0731
     57 H14         2.6304   -3.2407    2.8169 H         1 <0>         0.0511
     58 H15         0.4523   -3.8218    3.4319 H         1 <0>         0.0753
     59 H16         0.3841   -4.5700   -0.3844 H         1 <0>         0.0427
     60 H17        -6.0375    0.3284    3.1563 H         1 <0>         0.0450
     61 H18        -5.8542   -1.3328    3.7128 H         1 <0>         0.0406
     62 H19        -5.2988   -0.8789    2.0908 H         1 <0>         0.0274
     63 H20        -3.3028    0.8425    1.9049 H         1 <0>         0.0476
     64 H21        -4.1178    1.8926    3.0773 H         1 <0>         0.0170
     65 H22        -2.4708    1.3315    3.3922 H         1 <0>         0.0477
     66 H23        -4.5797   -4.4138   -0.5447 H         1 <0>         0.0814
     67 H24        -5.5388   -4.6089    0.9075 H         1 <0>         0.0685
     68 H25         0.4583    2.8766   -3.1995 H         1 <0>         0.1016
     69 H26        -0.9760    1.9088   -3.5262 H         1 <0>         0.0660
     70 H27        -1.4419    1.7433   -1.0734 H         1 <0>         0.0512
     71 H28        -0.0553    2.7561   -0.7237 H         1 <0>         0.0454
     72 H29        -2.0302   -1.0518    4.0061 H         1 <0>         0.0575
     73 H30        -3.3514   -2.1846    4.2177 H         1 <0>         0.0743
     74 H31        -2.4059    3.6595   -2.4451 H         1 <0>         0.0662
     75 H32        -1.4763    4.3211   -3.7975 H         1 <0>         0.0622
     76 H33         1.9749    1.3199   -2.8074 H         1 <0>         0.0321
     77 H34         2.4858    0.0519   -1.6791 H         1 <0>         0.0204
     78 H35        -2.3647   -1.1082    1.5019 H         1 <0>         0.0749
     79 H36        -6.1093   -2.2753   -1.0251 H         1 <0>         0.0719
     80 H37        -4.1195    0.0762    4.7551 H         1 <0>         0.0609
     81 H38         0.0149    0.0012   -2.0158 H         1 <0>         0.1063
     82 H39         0.1020    6.8290   -0.3326 H         1 <0>         0.4792
     83 H40        -1.1520    7.9756   -0.6874 H         1 <0>         0.4819
     84 H41        -2.9896    5.8694   -2.9997 H         1 <0>         0.4802
     85 H42        -2.9387    7.4275   -2.2266 H         1 <0>         0.4826
     86 H43         0.8216    0.7626    0.7549 H         1 <0>         0.3101
     87 H44        -4.4957   -3.1095    2.0656 H         1 <0>         0.3087
     88 H45         0.0605    4.6509   -1.3972 H         1 <0>         0.4846
     89 H46       -10.4643   -6.5976   -2.6838 H         1 <0>         0.4194
     90 H47         1.8515   -6.8926    0.0654 H         1 <0>         0.4036
     91 H48         2.2238    2.8203   -1.2580 H         1 <0>         0.4114
     92 H49        -7.2150   -3.1917    1.1166 H         1 <0>         0.3944
@<TRIPOS>BOND
     1    1    3 ar
     2    1    5 ar
     3    2    4 ar
     4    2    5 ar
     5    3    6 ar
     6    4    6 ar
     7    5   21 1
     8    6   40 1
     9    7   15 1
    10    7   34 am
    11    7   37 2
    12    8   27 1
    13    8   31 am
    14    8   38 2
    15    9   28 1
    16    9   35 am
    17    9   39 2
    18   10   32 1
    19   10   33 1
    20   10   36 1
    21   11   12 1
    22   11   16 1
    23   12   18 1
    24   13   15 1
    25   13   16 1
    26   14   17 1
    27   14   18 1
    28   15   31 1
    29   16   17 1
    30   17   31 1
    31   18   41 1
    32   19   29 1
    33   20   29 1
    34   21   28 1
    35   22   23 1
    36   22   25 1
    37   23   30 1
    38   24   27 1
    39   24   29 1
    40   25   36 1
    41   26   30 1
    42   26   42 1
    43   27   35 1
    44   28   43 1
    45   30   34 1
    46    1   44 1
    47    2   45 1
    48    3   46 1
    49    4   47 1
    50   11   48 1
    51   11   49 1
    52   12   50 1
    53   12   51 1
    54   13   52 1
    55   13   53 1
    56   14   54 1
    57   14   55 1
    58   15   56 1
    59   16   57 1
    60   17   58 1
    61   18   59 1
    62   19   60 1
    63   19   61 1
    64   19   62 1
    65   20   63 1
    66   20   64 1
    67   20   65 1
    68   21   66 1
    69   21   67 1
    70   22   68 1
    71   22   69 1
    72   23   70 1
    73   23   71 1
    74   24   72 1
    75   24   73 1
    76   25   74 1
    77   25   75 1
    78   26   76 1
    79   26   77 1
    80   27   78 1
    81   28   79 1
    82   29   80 1
    83   30   81 1
    84   32   82 1
    85   32   83 1
    86   33   84 1
    87   33   85 1
    88   34   86 1
    89   35   87 1
    90   36   88 1
    91   40   89 1
    92   41   90 1
    93   42   91 1
    94   43   92 1
@<TRIPOS>MOLECULE
1a2c_ligand_109
   92    94     0     0     0
SMALL
USER_CHARGES

mmff94s_NoEstat = 110.89
@<TRIPOS>ATOM
      1 C1         -7.7819   -5.3134   -0.2446 C.ar      1 <0>        -0.0708
      2 C2         -6.4637   -5.0735   -2.2550 C.ar      1 <0>        -0.0872
      3 C3         -8.7792   -5.9591   -0.9756 C.ar      1 <0>        -0.2241
      4 C4         -7.4609   -5.7192   -2.9860 C.ar      1 <0>        -0.1600
      5 C5         -6.6376   -4.8793   -0.8941 C.ar      1 <0>        -0.1356
      6 C6         -8.6187   -6.1620   -2.3463 C.ar      1 <0>         0.1290
      7 C7         -0.0512   -1.0561    0.2993 C.2       1 <0>         0.6664
      8 C8         -1.8469   -3.0457    2.1630 C.2       1 <0>         0.6651
      9 C9         -4.4743   -1.9575    0.3333 C.2       1 <0>         0.6454
     10 C10        -3.3500    0.4457   -4.1011 C.cat     1 <0>         0.6349
     11 C11         2.5186   -3.1911    0.6823 C.3       1 <0>        -0.0642
     12 C12         2.4580   -4.6414    0.2376 C.3       1 <0>        -0.0747
     13 C13         1.4874   -1.4827    2.2418 C.3       1 <0>        -0.0873
     14 C14         0.4946   -5.0934    1.7133 C.3       1 <0>        -0.1371
     15 C15         0.0412   -1.4176    1.7503 C.3       1 <0>         0.0360
     16 C16         1.8865   -2.9529    2.0632 C.3       1 <0>        -0.0720
     17 C17         0.5665   -3.7001    2.3454 C.3       1 <0>         0.1201
     18 C18         1.0248   -5.1525    0.2868 C.3       1 <0>         0.1453
     19 C19        -5.3726   -0.5418    3.1302 C.3       1 <0>        -0.0968
     20 C20        -3.4397    1.0389    2.9738 C.3       1 <0>        -0.0986
     21 C21        -5.5577   -4.1810   -0.1027 C.3       1 <0>        -0.0191
     22 C22        -0.5396    2.6263   -2.8210 C.3       1 <0>        -0.1009
     23 C23        -0.4337    2.0012   -1.4250 C.3       1 <0>        -0.0942
     24 C24        -2.9973   -1.3585    3.5851 C.3       1 <0>        -0.0988
     25 C25        -1.1768    1.6547   -3.8119 C.3       1 <0>         0.1966
     26 C26         1.9058    0.9774   -1.7696 C.3       1 <0>         0.1128
     27 C27        -2.7865   -1.8644    2.1628 C.3       1 <0>         0.0786
     28 C28        -5.7663   -2.6636   -0.0588 C.3       1 <0>         0.0744
     29 C29        -3.9969   -0.1898    3.6979 C.3       1 <0>        -0.0678
     30 C30         0.4555    0.7445   -1.3388 C.3       1 <0>         0.1065
     31 N1         -0.4979   -2.7598    1.9615 N.am      1 <0>        -0.4315
     32 N2         -4.6259    0.1367   -3.6415 N.pl3     1 <0>        -0.8671
     33 N3         -2.9073   -0.1094   -5.2969 N.pl3     1 <0>        -0.8581
     34 N4          0.4455    0.1980   -0.0008 N.am      1 <0>        -0.5687
     35 N5         -3.9799   -2.3853    1.5634 N.am      1 <0>        -0.5746
     36 N6         -2.5084    1.3070   -3.3760 N.pl3     1 <0>        -0.7533
     37 O1         -0.5362   -1.8555   -0.4928 O.2       1 <0>        -0.5843
     38 O2         -2.2998   -4.1783    2.3409 O.2       1 <0>        -0.6812
     39 O3         -3.9527   -1.0962   -0.3713 O.2       1 <0>        -0.5788
     40 O4         -9.5911   -6.7934   -3.0592 O.3       1 <0>        -0.4938
     41 O5          0.9879   -6.5072   -0.1510 O.3       1 <0>        -0.6030
     42 O6          2.6391   -0.2366   -1.6731 O.3       1 <0>        -0.5860
     43 O7         -6.7522   -2.3613    0.9179 O.3       1 <0>        -0.6021
     44 H1         -7.9160   -5.1597    0.8227 H         1 <0>         0.1412
     45 H2         -5.5648   -4.7322   -2.7618 H         1 <0>         0.1451
     46 H3         -9.6786   -6.3017   -0.4716 H         1 <0>         0.1336
     47 H4         -7.3297   -5.8752   -4.0535 H         1 <0>         0.1567
     48 H5          3.5627   -2.8549    0.7003 H         1 <0>         0.0649
     49 H6          2.0259   -2.5829   -0.0837 H         1 <0>         0.0476
     50 H7          2.8567   -4.7427   -0.7790 H         1 <0>         0.0641
     51 H8          3.1032   -5.2618    0.8729 H         1 <0>         0.0484
     52 H9          2.1569   -0.7868    1.7257 H         1 <0>         0.0596
     53 H10         1.5124   -1.2395    3.3116 H         1 <0>         0.0757
     54 H11         1.0921   -5.7802    2.3299 H         1 <0>         0.0782
     55 H12        -0.5175   -5.5090    1.7393 H         1 <0>         0.0812
     56 H13        -0.5378   -0.6778    2.3126 H         1 <0>         0.0731
     57 H14         2.6304   -3.2407    2.8169 H         1 <0>         0.0511
     58 H15         0.4523   -3.8218    3.4319 H         1 <0>         0.0753
     59 H16         0.3841   -4.5700   -0.3844 H         1 <0>         0.0427
     60 H17        -6.0375    0.3284    3.1563 H         1 <0>         0.0450
     61 H18        -5.8542   -1.3328    3.7128 H         1 <0>         0.0406
     62 H19        -5.2988   -0.8789    2.0908 H         1 <0>         0.0274
     63 H20        -3.3028    0.8425    1.9049 H         1 <0>         0.0476
     64 H21        -4.1178    1.8926    3.0773 H         1 <0>         0.0170
     65 H22        -2.4708    1.3315    3.3922 H         1 <0>         0.0477
     66 H23        -4.5797   -4.4138   -0.5447 H         1 <0>         0.0814
     67 H24        -5.5388   -4.6089    0.9075 H         1 <0>         0.0685
     68 H25        -1.1414    3.5417   -2.7803 H         1 <0>         0.1016
     69 H26         0.4540    2.9154   -3.1840 H         1 <0>         0.0660
     70 H27        -1.4419    1.7433   -1.0734 H         1 <0>         0.0512
     71 H28        -0.0553    2.7561   -0.7237 H         1 <0>         0.0454
     72 H29        -2.0302   -1.0518    4.0061 H         1 <0>         0.0575
     73 H30        -3.3514   -2.1846    4.2177 H         1 <0>         0.0743
     74 H31        -0.5754    0.7428   -3.8900 H         1 <0>         0.0662
     75 H32        -1.2333    2.1046   -4.8084 H         1 <0>         0.0622
     76 H33         2.4001    1.7344   -1.1517 H         1 <0>         0.0321
     77 H34         1.9468    1.3120   -2.8125 H         1 <0>         0.0204
     78 H35        -2.3647   -1.1082    1.5019 H         1 <0>         0.0749
     79 H36        -6.1093   -2.2753   -1.0251 H         1 <0>         0.0719
     80 H37        -4.1195    0.0762    4.7551 H         1 <0>         0.0609
     81 H38         0.0149    0.0012   -2.0158 H         1 <0>         0.1063
     82 H39        -4.9910    0.5172   -2.7724 H         1 <0>         0.4792
     83 H40        -5.2337   -0.4873   -4.1671 H         1 <0>         0.4819
     84 H41        -1.9802    0.0953   -5.6619 H         1 <0>         0.4802
     85 H42        -3.4997   -0.7341   -5.8386 H         1 <0>         0.4826
     86 H43         0.8216    0.7626    0.7549 H         1 <0>         0.3101
     87 H44        -4.4957   -3.1095    2.0656 H         1 <0>         0.3087
     88 H45        -2.8856    1.6887   -2.5001 H         1 <0>         0.4846
     89 H46       -10.4643   -6.5976   -2.6838 H         1 <0>         0.4194
     90 H47         1.8515   -6.8926    0.0654 H         1 <0>         0.4036
     91 H48         2.8853   -0.3414   -0.7399 H         1 <0>         0.4114
     92 H49        -7.2150   -3.1917    1.1166 H         1 <0>         0.3944
@<TRIPOS>BOND
     1    1    3 ar
     2    1    5 ar
     3    2    4 ar
     4    2    5 ar
     5    3    6 ar
     6    4    6 ar
     7    5   21 1
     8    6   40 1
     9    7   15 1
    10    7   34 am
    11    7   37 2
    12    8   27 1
    13    8   31 am
    14    8   38 2
    15    9   28 1
    16    9   35 am
    17    9   39 2
    18   10   32 1
    19   10   33 1
    20   10   36 1
    21   11   12 1
    22   11   16 1
    23   12   18 1
    24   13   15 1
    25   13   16 1
    26   14   17 1
    27   14   18 1
    28   15   31 1
    29   16   17 1
    30   17   31 1
    31   18   41 1
    32   19   29 1
    33   20   29 1
    34   21   28 1
    35   22   23 1
    36   22   25 1
    37   23   30 1
    38   24   27 1
    39   24   29 1
    40   25   36 1
    41   26   30 1
    42   26   42 1
    43   27   35 1
    44   28   43 1
    45   30   34 1
    46    1   44 1
    47    2   45 1
    48    3   46 1
    49    4   47 1
    50   11   48 1
    51   11   49 1
    52   12   50 1
    53   12   51 1
    54   13   52 1
    55   13   53 1
    56   14   54 1
    57   14   55 1
    58   15   56 1
    59   16   57 1
    60   17   58 1
    61   18   59 1
    62   19   60 1
    63   19   61 1
    64   19   62 1
    65   20   63 1
    66   20   64 1
    67   20   65 1
    68   21   66 1
    69   21   67 1
    70   22   68 1
    71   22   69 1
    72   23   70 1
    73   23   71 1
    74   24   72 1
    75   24   73 1
    76   25   74 1
    77   25   75 1
    78   26   76 1
    79   26   77 1
    80   27   78 1
    81   28   79 1
    82   29   80 1
    83   30   81 1
    84   32   82 1
    85   32   83 1
    86   33   84 1
    87   33   85 1
    88   34   86 1
    89   35   87 1
    90   36   88 1
    91   40   89 1
    92   41   90 1
    93   42   91 1
    94   43   92 1
@<TRIPOS>MOLECULE
1a2c_ligand_110
   92    94     0     0     0
SMALL
USER_CHARGES

mmff94s_NoEstat = 110.91
@<TRIPOS>ATOM
      1 C1         -8.2999   -1.2116    0.2497 C.ar      1 <0>        -0.0708
      2 C2         -6.3407    0.1900    0.0654 C.ar      1 <0>        -0.0872
      3 C3         -8.9301   -0.2301    1.0146 C.ar      1 <0>        -0.2241
      4 C4         -6.9709    1.1715    0.8303 C.ar      1 <0>        -0.1600
      5 C5         -7.0137   -0.9884   -0.2147 C.ar      1 <0>        -0.1356
      6 C6         -8.2656    0.9615    1.3049 C.ar      1 <0>         0.1290
      7 C7         -0.0512   -1.0561    0.2993 C.2       1 <0>         0.6664
      8 C8         -1.8469   -3.0457    2.1630 C.2       1 <0>         0.6651
      9 C9         -4.1811   -2.4610    0.1870 C.2       1 <0>         0.6454
     10 C10        -4.6048    3.4001   -1.1814 C.cat     1 <0>         0.6349
     11 C11         2.5186   -3.1911    0.6823 C.3       1 <0>        -0.0642
     12 C12         2.4580   -4.6414    0.2376 C.3       1 <0>        -0.0747
     13 C13         1.4874   -1.4827    2.2418 C.3       1 <0>        -0.0873
     14 C14         0.4946   -5.0934    1.7133 C.3       1 <0>        -0.1371
     15 C15         0.0412   -1.4176    1.7503 C.3       1 <0>         0.0360
     16 C16         1.8865   -2.9529    2.0632 C.3       1 <0>        -0.0720
     17 C17         0.5665   -3.7001    2.3454 C.3       1 <0>         0.1201
     18 C18         1.0248   -5.1525    0.2868 C.3       1 <0>         0.1453
     19 C19        -5.3726   -0.5418    3.1302 C.3       1 <0>        -0.0968
     20 C20        -3.4397    1.0389    2.9738 C.3       1 <0>        -0.0986
     21 C21        -6.3317   -2.0507   -1.0434 C.3       1 <0>        -0.0191
     22 C22        -2.1258    0.5661   -1.5204 C.3       1 <0>        -0.1009
     23 C23        -0.8794    1.4488   -1.6540 C.3       1 <0>        -0.0942
     24 C24        -2.9973   -1.3585    3.5851 C.3       1 <0>        -0.0988
     25 C25        -3.3881    1.3349   -1.9043 C.3       1 <0>         0.1966
     26 C26         1.6856    1.6412   -1.5001 C.3       1 <0>         0.1128
     27 C27        -2.7865   -1.8644    2.1628 C.3       1 <0>         0.0786
     28 C28        -5.5432   -3.0384   -0.1771 C.3       1 <0>         0.0744
     29 C29        -3.9969   -0.1898    3.6979 C.3       1 <0>        -0.0678
     30 C30         0.4555    0.7445   -1.3388 C.3       1 <0>         0.1065
     31 N1         -0.4979   -2.7598    1.9615 N.am      1 <0>        -0.4315
     32 N2         -4.7160    4.4968   -0.3331 N.pl3     1 <0>        -0.8671
     33 N3         -5.5614    3.2101   -2.1727 N.pl3     1 <0>        -0.8581
     34 N4          0.4455    0.1980   -0.0008 N.am      1 <0>        -0.5687
     35 N5         -3.9799   -2.3853    1.5634 N.am      1 <0>        -0.5746
     36 N6         -3.5437    2.4877   -1.0494 N.pl3     1 <0>        -0.7533
     37 O1         -0.5362   -1.8555   -0.4928 O.2       1 <0>        -0.5843
     38 O2         -2.2998   -4.1783    2.3409 O.2       1 <0>        -0.6812
     39 O3         -3.3708   -2.0954   -0.6616 O.2       1 <0>        -0.5788
     40 O4         -8.8812    1.9200    2.0500 O.3       1 <0>        -0.4938
     41 O5          0.9879   -6.5072   -0.1510 O.3       1 <0>        -0.6030
     42 O6          2.8639    0.9021   -1.2063 O.3       1 <0>        -0.5860
     43 O7         -5.3363   -4.2353   -0.9135 O.3       1 <0>        -0.6021
     44 H1         -8.8255   -2.1367    0.0289 H         1 <0>         0.1412
     45 H2         -5.3318    0.3624   -0.3005 H         1 <0>         0.1451
     46 H3         -9.9386   -0.3995    1.3813 H         1 <0>         0.1336
     47 H4         -6.4483    2.0982    1.0523 H         1 <0>         0.1567
     48 H5          3.5627   -2.8549    0.7003 H         1 <0>         0.0649
     49 H6          2.0259   -2.5829   -0.0837 H         1 <0>         0.0476
     50 H7          2.8567   -4.7427   -0.7790 H         1 <0>         0.0641
     51 H8          3.1032   -5.2618    0.8729 H         1 <0>         0.0484
     52 H9          2.1569   -0.7868    1.7257 H         1 <0>         0.0596
     53 H10         1.5124   -1.2395    3.3116 H         1 <0>         0.0757
     54 H11         1.0921   -5.7802    2.3299 H         1 <0>         0.0782
     55 H12        -0.5175   -5.5090    1.7393 H         1 <0>         0.0812
     56 H13        -0.5378   -0.6778    2.3126 H         1 <0>         0.0731
     57 H14         2.6304   -3.2407    2.8169 H         1 <0>         0.0511
     58 H15         0.4523   -3.8218    3.4319 H         1 <0>         0.0753
     59 H16         0.3841   -4.5700   -0.3844 H         1 <0>         0.0427
     60 H17        -6.0375    0.3284    3.1563 H         1 <0>         0.0450
     61 H18        -5.8542   -1.3328    3.7128 H         1 <0>         0.0406
     62 H19        -5.2988   -0.8789    2.0908 H         1 <0>         0.0274
     63 H20        -3.3028    0.8425    1.9049 H         1 <0>         0.0476
     64 H21        -4.1178    1.8926    3.0773 H         1 <0>         0.0170
     65 H22        -2.4708    1.3315    3.3922 H         1 <0>         0.0477
     66 H23        -5.6623   -1.5677   -1.7677 H         1 <0>         0.0814
     67 H24        -7.0952   -2.5664   -1.6394 H         1 <0>         0.0685
     68 H25        -2.0346   -0.3163   -2.1645 H         1 <0>         0.1016
     69 H26        -2.2229    0.1995   -0.4914 H         1 <0>         0.0660
     70 H27        -0.9849    2.3163   -0.9885 H         1 <0>         0.0512
     71 H28        -0.8376    1.8555   -2.6726 H         1 <0>         0.0454
     72 H29        -2.0302   -1.0518    4.0061 H         1 <0>         0.0575
     73 H30        -3.3514   -2.1846    4.2177 H         1 <0>         0.0743
     74 H31        -4.2695    0.6926   -1.8042 H         1 <0>         0.0662
     75 H32        -3.3332    1.6675   -2.9460 H         1 <0>         0.0622
     76 H33         1.6463    2.5133   -0.8391 H         1 <0>         0.0321
     77 H34         1.7645    2.0016   -2.5321 H         1 <0>         0.0204
     78 H35        -2.3647   -1.1082    1.5019 H         1 <0>         0.0749
     79 H36        -6.0846   -3.2900    0.7426 H         1 <0>         0.0719
     80 H37        -4.1195    0.0762    4.7551 H         1 <0>         0.0609
     81 H38         0.5463   -0.0881   -2.0483 H         1 <0>         0.1063
     82 H39        -4.0418    4.6748    0.4066 H         1 <0>         0.4792
     83 H40        -5.4849    5.1560   -0.4294 H         1 <0>         0.4819
     84 H41        -5.5105    2.4190   -2.8099 H         1 <0>         0.4802
     85 H42        -6.3370    3.8583   -2.2872 H         1 <0>         0.4826
     86 H43         0.8216    0.7626    0.7549 H         1 <0>         0.3101
     87 H44        -4.7231   -2.7191    2.1790 H         1 <0>         0.3087
     88 H45        -2.8658    2.6759   -0.3010 H         1 <0>         0.4846
     89 H46        -9.4766    1.5112    2.6982 H         1 <0>         0.4194
     90 H47         1.8515   -6.8926    0.0654 H         1 <0>         0.4036
     91 H48         2.9483    0.8828   -0.2393 H         1 <0>         0.4114
     92 H49        -5.9568   -4.2165   -1.6604 H         1 <0>         0.3944
@<TRIPOS>BOND
     1    1    3 ar
     2    1    5 ar
     3    2    4 ar
     4    2    5 ar
     5    3    6 ar
     6    4    6 ar
     7    5   21 1
     8    6   40 1
     9    7   15 1
    10    7   34 am
    11    7   37 2
    12    8   27 1
    13    8   31 am
    14    8   38 2
    15    9   28 1
    16    9   35 am
    17    9   39 2
    18   10   32 1
    19   10   33 1
    20   10   36 1
    21   11   12 1
    22   11   16 1
    23   12   18 1
    24   13   15 1
    25   13   16 1
    26   14   17 1
    27   14   18 1
    28   15   31 1
    29   16   17 1
    30   17   31 1
    31   18   41 1
    32   19   29 1
    33   20   29 1
    34   21   28 1
    35   22   23 1
    36   22   25 1
    37   23   30 1
    38   24   27 1
    39   24   29 1
    40   25   36 1
    41   26   30 1
    42   26   42 1
    43   27   35 1
    44   28   43 1
    45   30   34 1
    46    1   44 1
    47    2   45 1
    48    3   46 1
    49    4   47 1
    50   11   48 1
    51   11   49 1
    52   12   50 1
    53   12   51 1
    54   13   52 1
    55   13   53 1
    56   14   54 1
    57   14   55 1
    58   15   56 1
    59   16   57 1
    60   17   58 1
    61   18   59 1
    62   19   60 1
    63   19   61 1
    64   19   62 1
    65   20   63 1
    66   20   64 1
    67   20   65 1
    68   21   66 1
    69   21   67 1
    70   22   68 1
    71   22   69 1
    72   23   70 1
    73   23   71 1
    74   24   72 1
    75   24   73 1
    76   25   74 1
    77   25   75 1
    78   26   76 1
    79   26   77 1
    80   27   78 1
    81   28   79 1
    82   29   80 1
    83   30   81 1
    84   32   82 1
    85   32   83 1
    86   33   84 1
    87   33   85 1
    88   34   86 1
    89   35   87 1
    90   36   88 1
    91   40   89 1
    92   41   90 1
    93   42   91 1
    94   43   92 1
@<TRIPOS>MOLECULE
1a2c_ligand_111
   92    94     0     0     0
SMALL
USER_CHARGES

mmff94s_NoEstat = 111.03
@<TRIPOS>ATOM
      1 C1          9.6781   -0.8835    4.6459 C.ar      1 <0>        -0.0708
      2 C2          8.0683    0.3374    5.9707 C.ar      1 <0>        -0.0872
      3 C3         10.6899   -0.0331    5.0917 C.ar      1 <0>        -0.2241
      4 C4          9.0801    1.1878    6.4165 C.ar      1 <0>        -0.1600
      5 C5          8.3809   -0.6869    5.0914 C.ar      1 <0>        -0.1356
      6 C6         10.3909    1.0026    5.9770 C.ar      1 <0>         0.1290
      7 C7          0.1755   -1.0766    0.1327 C.2       1 <0>         0.6664
      8 C8          2.3785   -0.9757    2.2764 C.2       1 <0>         0.6651
      9 C9          5.2695   -1.7615    3.1198 C.2       1 <0>         0.6454
     10 C10        -3.0114    4.0073   -4.4942 C.cat     1 <0>         0.6349
     11 C11         2.4521   -5.3069   -0.2561 C.3       1 <0>        -0.0642
     12 C12         1.2413   -5.9691    0.3982 C.3       1 <0>        -0.0747
     13 C13         1.5734   -2.9393   -0.7647 C.3       1 <0>        -0.0873
     14 C14         1.0938   -4.1277    2.1072 C.3       1 <0>        -0.1371
     15 C15         1.5650   -1.6216    0.0133 C.3       1 <0>         0.0360
     16 C16         2.5597   -3.8106    0.0203 C.3       1 <0>        -0.0720
     17 C17         2.2934   -3.4012    1.4755 C.3       1 <0>         0.1201
     18 C18         1.1411   -5.6363    1.8853 C.3       1 <0>         0.1453
     19 C19         3.8896   -0.8379    6.4377 C.3       1 <0>        -0.0968
     20 C20         2.2599   -2.7349    6.3694 C.3       1 <0>        -0.0986
     21 C21         7.2857   -1.6080    4.6093 C.3       1 <0>        -0.0191
     22 C22        -0.8155    2.0502   -2.2095 C.3       1 <0>        -0.1009
     23 C23        -1.7941    0.8762   -2.3301 C.3       1 <0>        -0.0942
     24 C24         1.9925   -0.8489    4.7298 C.3       1 <0>        -0.0988
     25 C25        -1.0015    3.0414   -3.3563 C.3       1 <0>         0.1966
     26 C26        -2.7214   -1.3050   -1.3187 C.3       1 <0>         0.1128
     27 C27         2.8496   -1.4560    3.6253 C.3       1 <0>         0.0786
     28 C28         6.6222   -1.0920    3.3282 C.3       1 <0>         0.0744
     29 C29         2.4383   -1.2292    6.1562 C.3       1 <0>        -0.0678
     30 C30        -1.7203   -0.1547   -1.1858 C.3       1 <0>         0.1065
     31 N1          2.0322   -1.9586    1.3590 N.am      1 <0>        -0.4315
     32 N2         -4.3058    4.5123   -4.4275 N.pl3     1 <0>        -0.8671
     33 N3         -2.3756    3.9328   -5.7288 N.pl3     1 <0>        -0.8581
     34 N4         -0.3878   -0.7030   -1.0725 N.am      1 <0>        -0.5687
     35 N5          4.2184   -1.0331    3.6724 N.am      1 <0>        -0.5746
     36 N6         -2.3430    3.5743   -3.3360 N.pl3     1 <0>        -0.7533
     37 O1         -0.3509   -1.0007    1.2367 O.2       1 <0>        -0.5843
     38 O2          2.3230    0.2335    2.0409 O.2       1 <0>        -0.6812
     39 O3          5.1476   -2.8360    2.5359 O.2       1 <0>        -0.5788
     40 O4         11.3785    1.8314    6.4133 O.3       1 <0>        -0.4938
     41 O5          2.2611   -6.1715    2.5852 O.3       1 <0>        -0.6030
     42 O6         -2.4752   -2.0231   -2.5206 O.3       1 <0>        -0.5860
     43 O7          7.4509   -1.4094    2.2191 O.3       1 <0>        -0.6021
     44 H1          9.9207   -1.6873    3.9562 H         1 <0>         0.1412
     45 H2          7.0498    0.4890    6.3187 H         1 <0>         0.1451
     46 H3         11.7089   -0.1826    4.7459 H         1 <0>         0.1336
     47 H4          8.8410    1.9923    7.1070 H         1 <0>         0.1567
     48 H5          3.3605   -5.7937    0.1218 H         1 <0>         0.0649
     49 H6          2.4319   -5.4897   -1.3370 H         1 <0>         0.0476
     50 H7          0.3241   -5.6545   -0.1129 H         1 <0>         0.0641
     51 H8          1.3294   -7.0545    0.2691 H         1 <0>         0.0484
     52 H9          0.5754   -3.3919   -0.8000 H         1 <0>         0.0596
     53 H10         1.8977   -2.7914   -1.8003 H         1 <0>         0.0757
     54 H11         1.0807   -3.9085    3.1823 H         1 <0>         0.0782
     55 H12         0.1523   -3.7376    1.7002 H         1 <0>         0.0812
     56 H13         2.2202   -0.8626   -0.4249 H         1 <0>         0.0731
     57 H14         3.5726   -3.4842   -0.2571 H         1 <0>         0.0511
     58 H15         3.1875   -3.5701    2.0864 H         1 <0>         0.0753
     59 H16         0.2435   -6.1003    2.3075 H         1 <0>         0.0427
     60 H17         4.2001   -1.1859    7.4289 H         1 <0>         0.0450
     61 H18         4.0203    0.2482    6.4220 H         1 <0>         0.0406
     62 H19         4.5693   -1.2752    5.6986 H         1 <0>         0.0274
     63 H20         2.8852   -3.3113    5.6789 H         1 <0>         0.0476
     64 H21         2.5335   -3.0185    7.3913 H         1 <0>         0.0170
     65 H22         1.2173   -3.0301    6.2104 H         1 <0>         0.0477
     66 H23         6.5349   -1.7208    5.4029 H         1 <0>         0.0814
     67 H24         7.7154   -2.6065    4.4600 H         1 <0>         0.0685
     68 H25        -0.9672    2.5721   -1.2575 H         1 <0>         0.1016
     69 H26         0.2183    1.6845   -2.2100 H         1 <0>         0.0660
     70 H27        -1.6130    0.3584   -3.2819 H         1 <0>         0.0512
     71 H28        -2.8171    1.2691   -2.3922 H         1 <0>         0.0454
     72 H29         0.9469   -1.1516    4.5828 H         1 <0>         0.0575
     73 H30         2.0032    0.2464    4.6399 H         1 <0>         0.0743
     74 H31        -0.8263    2.5473   -4.3177 H         1 <0>         0.0662
     75 H32        -0.2878    3.8671   -3.2695 H         1 <0>         0.0622
     76 H33        -3.7565   -0.9478   -1.3308 H         1 <0>         0.0321
     77 H34        -2.6144   -2.0048   -0.4820 H         1 <0>         0.0204
     78 H35         2.8203   -2.5449    3.6159 H         1 <0>         0.0749
     79 H36         6.4849   -0.0045    3.3546 H         1 <0>         0.0719
     80 H37         1.7968   -0.7138    6.8816 H         1 <0>         0.0609
     81 H38        -1.9472    0.3883   -0.2591 H         1 <0>         0.1063
     82 H39        -4.8103    4.5836   -3.5479 H         1 <0>         0.4792
     83 H40        -4.7886    4.8248   -5.2668 H         1 <0>         0.4819
     84 H41        -1.4296    3.5688   -5.8135 H         1 <0>         0.4802
     85 H42        -2.8398    4.2415   -6.5796 H         1 <0>         0.4826
     86 H43         0.1607   -0.8193   -1.9192 H         1 <0>         0.3101
     87 H44         4.4349   -0.1495    4.1364 H         1 <0>         0.3087
     88 H45        -2.8590    3.6517   -2.4512 H         1 <0>         0.4846
     89 H46        12.0516    1.9448    5.7234 H         1 <0>         0.4194
     90 H47         2.7873   -5.4145    2.8873 H         1 <0>         0.4036
     91 H48        -2.8906   -1.5183   -3.2383 H         1 <0>         0.4114
     92 H49         8.3251   -1.6348    2.5769 H         1 <0>         0.3944
@<TRIPOS>BOND
     1    1    3 ar
     2    1    5 ar
     3    2    4 ar
     4    2    5 ar
     5    3    6 ar
     6    4    6 ar
     7    5   21 1
     8    6   40 1
     9    7   15 1
    10    7   34 am
    11    7   37 2
    12    8   27 1
    13    8   31 am
    14    8   38 2
    15    9   28 1
    16    9   35 am
    17    9   39 2
    18   10   32 1
    19   10   33 1
    20   10   36 1
    21   11   12 1
    22   11   16 1
    23   12   18 1
    24   13   15 1
    25   13   16 1
    26   14   17 1
    27   14   18 1
    28   15   31 1
    29   16   17 1
    30   17   31 1
    31   18   41 1
    32   19   29 1
    33   20   29 1
    34   21   28 1
    35   22   23 1
    36   22   25 1
    37   23   30 1
    38   24   27 1
    39   24   29 1
    40   25   36 1
    41   26   30 1
    42   26   42 1
    43   27   35 1
    44   28   43 1
    45   30   34 1
    46    1   44 1
    47    2   45 1
    48    3   46 1
    49    4   47 1
    50   11   48 1
    51   11   49 1
    52   12   50 1
    53   12   51 1
    54   13   52 1
    55   13   53 1
    56   14   54 1
    57   14   55 1
    58   15   56 1
    59   16   57 1
    60   17   58 1
    61   18   59 1
    62   19   60 1
    63   19   61 1
    64   19   62 1
    65   20   63 1
    66   20   64 1
    67   20   65 1
    68   21   66 1
    69   21   67 1
    70   22   68 1
    71   22   69 1
    72   23   70 1
    73   23   71 1
    74   24   72 1
    75   24   73 1
    76   25   74 1
    77   25   75 1
    78   26   76 1
    79   26   77 1
    80   27   78 1
    81   28   79 1
    82   29   80 1
    83   30   81 1
    84   32   82 1
    85   32   83 1
    86   33   84 1
    87   33   85 1
    88   34   86 1
    89   35   87 1
    90   36   88 1
    91   40   89 1
    92   41   90 1
    93   42   91 1
    94   43   92 1
@<TRIPOS>MOLECULE
1a2c_ligand_112
   92    94     0     0     0
SMALL
USER_CHARGES

mmff94s_NoEstat = 111.04
@<TRIPOS>ATOM
      1 C1          8.7543    1.2597    2.9884 C.ar      1 <0>        -0.0708
      2 C2          9.0296   -0.6325    1.5115 C.ar      1 <0>        -0.0872
      3 C3         10.0864    1.6167    2.7793 C.ar      1 <0>        -0.2241
      4 C4         10.3616   -0.2755    1.3024 C.ar      1 <0>        -0.1600
      5 C5          8.2437    0.1400    2.3517 C.ar      1 <0>        -0.1356
      6 C6         10.8901    0.8491    1.9363 C.ar      1 <0>         0.1290
      7 C7          0.1755   -1.0766    0.1327 C.2       1 <0>         0.6664
      8 C8          2.3785   -0.9757    2.2764 C.2       1 <0>         0.6651
      9 C9          5.2968   -1.9145    3.7000 C.2       1 <0>         0.6454
     10 C10         0.0566    5.9382   -0.9679 C.cat     1 <0>         0.6349
     11 C11         2.4521   -5.3069   -0.2561 C.3       1 <0>        -0.0642
     12 C12         1.2413   -5.9691    0.3982 C.3       1 <0>        -0.0747
     13 C13         1.5734   -2.9393   -0.7647 C.3       1 <0>        -0.0873
     14 C14         1.0938   -4.1277    2.1072 C.3       1 <0>        -0.1371
     15 C15         1.5650   -1.6216    0.0133 C.3       1 <0>         0.0360
     16 C16         2.5597   -3.8106    0.0203 C.3       1 <0>        -0.0720
     17 C17         2.2934   -3.4012    1.4755 C.3       1 <0>         0.1201
     18 C18         1.1411   -5.6363    1.8853 C.3       1 <0>         0.1453
     19 C19         3.8896   -0.8379    6.4377 C.3       1 <0>        -0.0968
     20 C20         2.2599   -2.7349    6.3694 C.3       1 <0>        -0.0986
     21 C21         6.8014   -0.2461    2.5776 C.3       1 <0>        -0.0191
     22 C22        -0.8392    2.2664   -0.8852 C.3       1 <0>        -0.1009
     23 C23        -1.6754    1.2905   -1.7214 C.3       1 <0>        -0.0942
     24 C24         1.9925   -0.8489    4.7298 C.3       1 <0>        -0.0988
     25 C25        -0.9003    3.6784   -1.4634 C.3       1 <0>         0.1966
     26 C26        -2.5783   -1.1036   -2.0263 C.3       1 <0>         0.1128
     27 C27         2.8496   -1.4560    3.6253 C.3       1 <0>         0.0786
     28 C28         6.6400   -1.1984    3.7670 C.3       1 <0>         0.0744
     29 C29         2.4383   -1.2292    6.1562 C.3       1 <0>        -0.0678
     30 C30        -1.7203   -0.1547   -1.1858 C.3       1 <0>         0.1065
     31 N1          2.0322   -1.9586    1.3590 N.am      1 <0>        -0.4315
     32 N2          0.8383    6.7654   -0.1682 N.pl3     1 <0>        -0.8671
     33 N3         -0.5783    6.4758   -2.0824 N.pl3     1 <0>        -0.8581
     34 N4         -0.3878   -0.7030   -1.0725 N.am      1 <0>        -0.5687
     35 N5          4.2184   -1.0331    3.6724 N.am      1 <0>        -0.5746
     36 N6         -0.0981    4.5744   -0.6649 N.pl3     1 <0>        -0.7533
     37 O1         -0.3509   -1.0007    1.2367 O.2       1 <0>        -0.5843
     38 O2          2.3230    0.2335    2.0409 O.2       1 <0>        -0.6812
     39 O3          5.2019   -3.1398    3.6875 O.2       1 <0>        -0.5788
     40 O4         12.1895    1.1984    1.7309 O.3       1 <0>        -0.4938
     41 O5          2.2611   -6.1715    2.5852 O.3       1 <0>        -0.6030
     42 O6         -2.5724   -2.4015   -1.4465 O.3       1 <0>        -0.5860
     43 O7          6.6827   -0.4452    4.9705 O.3       1 <0>        -0.6021
     44 H1          8.1360    1.8636    3.6469 H         1 <0>         0.1412
     45 H2          8.6262   -1.5102    1.0132 H         1 <0>         0.1451
     46 H3         10.4921    2.4937    3.2757 H         1 <0>         0.1336
     47 H4         10.9825   -0.8770    0.6437 H         1 <0>         0.1567
     48 H5          3.3605   -5.7937    0.1218 H         1 <0>         0.0649
     49 H6          2.4319   -5.4897   -1.3370 H         1 <0>         0.0476
     50 H7          0.3241   -5.6545   -0.1129 H         1 <0>         0.0641
     51 H8          1.3294   -7.0545    0.2691 H         1 <0>         0.0484
     52 H9          0.5754   -3.3919   -0.8000 H         1 <0>         0.0596
     53 H10         1.8977   -2.7914   -1.8003 H         1 <0>         0.0757
     54 H11         1.0807   -3.9085    3.1823 H         1 <0>         0.0782
     55 H12         0.1523   -3.7376    1.7002 H         1 <0>         0.0812
     56 H13         2.2202   -0.8626   -0.4249 H         1 <0>         0.0731
     57 H14         3.5726   -3.4842   -0.2571 H         1 <0>         0.0511
     58 H15         3.1875   -3.5701    2.0864 H         1 <0>         0.0753
     59 H16         0.2435   -6.1003    2.3075 H         1 <0>         0.0427
     60 H17         4.2001   -1.1859    7.4289 H         1 <0>         0.0450
     61 H18         4.0203    0.2482    6.4220 H         1 <0>         0.0406
     62 H19         4.5693   -1.2752    5.6986 H         1 <0>         0.0274
     63 H20         2.8852   -3.3113    5.6789 H         1 <0>         0.0476
     64 H21         2.5335   -3.0185    7.3913 H         1 <0>         0.0170
     65 H22         1.2173   -3.0301    6.2104 H         1 <0>         0.0477
     66 H23         6.4066   -0.7130    1.6653 H         1 <0>         0.0814
     67 H24         6.2170    0.6714    2.7209 H         1 <0>         0.0685
     68 H25        -1.2041    2.2870    0.1483 H         1 <0>         0.1016
     69 H26         0.2054    1.9349   -0.8467 H         1 <0>         0.0660
     70 H27        -1.2820    1.2733   -2.7469 H         1 <0>         0.0512
     71 H28        -2.7004    1.6751   -1.7996 H         1 <0>         0.0454
     72 H29         0.9469   -1.1516    4.5828 H         1 <0>         0.0575
     73 H30         2.0032    0.2464    4.6399 H         1 <0>         0.0743
     74 H31        -1.9343    4.0389   -1.4775 H         1 <0>         0.0662
     75 H32        -0.5286    3.6880   -2.4933 H         1 <0>         0.0622
     76 H33        -2.2157   -1.1795   -3.0567 H         1 <0>         0.0321
     77 H34        -3.6169   -0.7550   -2.0576 H         1 <0>         0.0204
     78 H35         2.8203   -2.5449    3.6159 H         1 <0>         0.0749
     79 H36         7.4436   -1.9436    3.7993 H         1 <0>         0.0719
     80 H37         1.7968   -0.7138    6.8816 H         1 <0>         0.0609
     81 H38        -2.1562   -0.1031   -0.1797 H         1 <0>         0.1063
     82 H39         1.3192    6.4171    0.6569 H         1 <0>         0.4792
     83 H40         0.9489    7.7525   -0.3884 H         1 <0>         0.4819
     84 H41        -1.1572    5.8995   -2.6884 H         1 <0>         0.4802
     85 H42        -0.4794    7.4595   -2.3213 H         1 <0>         0.4826
     86 H43         0.1607   -0.8193   -1.9192 H         1 <0>         0.3101
     87 H44         4.4137   -0.0309    3.6864 H         1 <0>         0.3087
     88 H45         0.3928    4.2301    0.1692 H         1 <0>         0.4846
     89 H46        12.5567    1.6117    2.5285 H         1 <0>         0.4194
     90 H47         2.7873   -5.4145    2.8873 H         1 <0>         0.4036
     91 H48        -1.7464   -2.8287   -1.7250 H         1 <0>         0.4114
     92 H49         7.0545    0.4233    4.7455 H         1 <0>         0.3944
@<TRIPOS>BOND
     1    1    3 ar
     2    1    5 ar
     3    2    4 ar
     4    2    5 ar
     5    3    6 ar
     6    4    6 ar
     7    5   21 1
     8    6   40 1
     9    7   15 1
    10    7   34 am
    11    7   37 2
    12    8   27 1
    13    8   31 am
    14    8   38 2
    15    9   28 1
    16    9   35 am
    17    9   39 2
    18   10   32 1
    19   10   33 1
    20   10   36 1
    21   11   12 1
    22   11   16 1
    23   12   18 1
    24   13   15 1
    25   13   16 1
    26   14   17 1
    27   14   18 1
    28   15   31 1
    29   16   17 1
    30   17   31 1
    31   18   41 1
    32   19   29 1
    33   20   29 1
    34   21   28 1
    35   22   23 1
    36   22   25 1
    37   23   30 1
    38   24   27 1
    39   24   29 1
    40   25   36 1
    41   26   30 1
    42   26   42 1
    43   27   35 1
    44   28   43 1
    45   30   34 1
    46    1   44 1
    47    2   45 1
    48    3   46 1
    49    4   47 1
    50   11   48 1
    51   11   49 1
    52   12   50 1
    53   12   51 1
    54   13   52 1
    55   13   53 1
    56   14   54 1
    57   14   55 1
    58   15   56 1
    59   16   57 1
    60   17   58 1
    61   18   59 1
    62   19   60 1
    63   19   61 1
    64   19   62 1
    65   20   63 1
    66   20   64 1
    67   20   65 1
    68   21   66 1
    69   21   67 1
    70   22   68 1
    71   22   69 1
    72   23   70 1
    73   23   71 1
    74   24   72 1
    75   24   73 1
    76   25   74 1
    77   25   75 1
    78   26   76 1
    79   26   77 1
    80   27   78 1
    81   28   79 1
    82   29   80 1
    83   30   81 1
    84   32   82 1
    85   32   83 1
    86   33   84 1
    87   33   85 1
    88   34   86 1
    89   35   87 1
    90   36   88 1
    91   40   89 1
    92   41   90 1
    93   42   91 1
    94   43   92 1
@<TRIPOS>MOLECULE
1a2c_ligand_113
   92    94     0     0     0
SMALL
USER_CHARGES

mmff94s_NoEstat = 111.09
@<TRIPOS>ATOM
      1 C1         -9.0710   -3.1012    0.0189 C.ar      1 <0>        -0.0708
      2 C2         -7.9646   -4.4965    1.6517 C.ar      1 <0>        -0.0872
      3 C3        -10.1182   -4.0195   -0.0562 C.ar      1 <0>        -0.2241
      4 C4         -9.0118   -5.4148    1.5766 C.ar      1 <0>        -0.1600
      5 C5         -8.0083   -3.3520    0.8718 C.ar      1 <0>        -0.1356
      6 C6        -10.0887   -5.1764    0.7226 C.ar      1 <0>         0.1290
      7 C7         -0.0512   -1.0561    0.2993 C.2       1 <0>         0.6664
      8 C8         -1.8469   -3.0457    2.1630 C.2       1 <0>         0.6651
      9 C9         -4.4743   -1.9575    0.3333 C.2       1 <0>         0.6454
     10 C10        -4.9611    2.5287   -1.1447 C.cat     1 <0>         0.6349
     11 C11         2.5186   -3.1911    0.6823 C.3       1 <0>        -0.0642
     12 C12         2.4580   -4.6414    0.2376 C.3       1 <0>        -0.0747
     13 C13         1.4874   -1.4827    2.2418 C.3       1 <0>        -0.0873
     14 C14         0.4946   -5.0934    1.7133 C.3       1 <0>        -0.1371
     15 C15         0.0412   -1.4176    1.7503 C.3       1 <0>         0.0360
     16 C16         1.8865   -2.9529    2.0632 C.3       1 <0>        -0.0720
     17 C17         0.5665   -3.7001    2.3454 C.3       1 <0>         0.1201
     18 C18         1.0248   -5.1525    0.2868 C.3       1 <0>         0.1453
     19 C19        -5.3726   -0.5418    3.1302 C.3       1 <0>        -0.0968
     20 C20        -3.4397    1.0389    2.9738 C.3       1 <0>        -0.0986
     21 C21        -6.8749   -2.3574    0.9537 C.3       1 <0>        -0.0191
     22 C22        -1.2019    2.6554   -0.7648 C.3       1 <0>        -0.1009
     23 C23        -0.8794    1.4488   -1.6540 C.3       1 <0>        -0.0942
     24 C24        -2.9973   -1.3585    3.5851 C.3       1 <0>        -0.0988
     25 C25        -2.5638    3.2498   -1.1169 C.3       1 <0>         0.1966
     26 C26         1.6856    1.6412   -1.5001 C.3       1 <0>         0.1128
     27 C27        -2.7865   -1.8644    2.1628 C.3       1 <0>         0.0786
     28 C28        -5.7663   -2.6636   -0.0588 C.3       1 <0>         0.0744
     29 C29        -3.9969   -0.1898    3.6979 C.3       1 <0>        -0.0678
     30 C30         0.4555    0.7445   -1.3388 C.3       1 <0>         0.1065
     31 N1         -0.4979   -2.7598    1.9615 N.am      1 <0>        -0.4315
     32 N2         -5.9246    1.5452   -0.9464 N.pl3     1 <0>        -0.8671
     33 N3         -5.3591    3.7919   -1.5689 N.pl3     1 <0>        -0.8581
     34 N4          0.4455    0.1980   -0.0008 N.am      1 <0>        -0.5687
     35 N5         -3.9799   -2.3853    1.5634 N.am      1 <0>        -0.5746
     36 N6         -3.5989    2.2625   -0.9226 N.pl3     1 <0>        -0.7533
     37 O1         -0.5362   -1.8555   -0.4928 O.2       1 <0>        -0.5843
     38 O2         -2.2998   -4.1783    2.3409 O.2       1 <0>        -0.6812
     39 O3         -3.9527   -1.0962   -0.3713 O.2       1 <0>        -0.5788
     40 O4        -11.1113   -6.0717    0.6505 O.3       1 <0>        -0.4938
     41 O5          0.9879   -6.5072   -0.1510 O.3       1 <0>        -0.6030
     42 O6          2.8639    0.9021   -1.2063 O.3       1 <0>        -0.5860
     43 O7         -6.1634   -2.1870   -1.3365 O.3       1 <0>        -0.6021
     44 H1         -9.1028   -2.2030   -0.5918 H         1 <0>         0.1412
     45 H2         -7.1297   -4.6904    2.3201 H         1 <0>         0.1451
     46 H3        -10.9542   -3.8281   -0.7231 H         1 <0>         0.1336
     47 H4         -8.9835   -6.3139    2.1866 H         1 <0>         0.1567
     48 H5          3.5627   -2.8549    0.7003 H         1 <0>         0.0649
     49 H6          2.0259   -2.5829   -0.0837 H         1 <0>         0.0476
     50 H7          2.8567   -4.7427   -0.7790 H         1 <0>         0.0641
     51 H8          3.1032   -5.2618    0.8729 H         1 <0>         0.0484
     52 H9          2.1569   -0.7868    1.7257 H         1 <0>         0.0596
     53 H10         1.5124   -1.2395    3.3116 H         1 <0>         0.0757
     54 H11         1.0921   -5.7802    2.3299 H         1 <0>         0.0782
     55 H12        -0.5175   -5.5090    1.7393 H         1 <0>         0.0812
     56 H13        -0.5378   -0.6778    2.3126 H         1 <0>         0.0731
     57 H14         2.6304   -3.2407    2.8169 H         1 <0>         0.0511
     58 H15         0.4523   -3.8218    3.4319 H         1 <0>         0.0753
     59 H16         0.3841   -4.5700   -0.3844 H         1 <0>         0.0427
     60 H17        -6.0375    0.3284    3.1563 H         1 <0>         0.0450
     61 H18        -5.8542   -1.3328    3.7128 H         1 <0>         0.0406
     62 H19        -5.2988   -0.8789    2.0908 H         1 <0>         0.0274
     63 H20        -3.3028    0.8425    1.9049 H         1 <0>         0.0476
     64 H21        -4.1178    1.8926    3.0773 H         1 <0>         0.0170
     65 H22        -2.4708    1.3315    3.3922 H         1 <0>         0.0477
     66 H23        -6.4655   -2.3612    1.9727 H         1 <0>         0.0814
     67 H24        -7.2864   -1.3519    0.8004 H         1 <0>         0.0685
     68 H25        -1.2036    2.3575    0.2901 H         1 <0>         0.1016
     69 H26        -0.4298    3.4262   -0.8760 H         1 <0>         0.0660
     70 H27        -0.8663    1.7736   -2.7033 H         1 <0>         0.0512
     71 H28        -1.6959    0.7195   -1.5759 H         1 <0>         0.0454
     72 H29        -2.0302   -1.0518    4.0061 H         1 <0>         0.0575
     73 H30        -3.3514   -2.1846    4.2177 H         1 <0>         0.0743
     74 H31        -2.5755    3.5811   -2.1607 H         1 <0>         0.0662
     75 H32        -2.7773    4.1198   -0.4874 H         1 <0>         0.0622
     76 H33         1.6463    2.5133   -0.8391 H         1 <0>         0.0321
     77 H34         1.7645    2.0016   -2.5321 H         1 <0>         0.0204
     78 H35        -2.3647   -1.1082    1.5019 H         1 <0>         0.0749
     79 H36        -5.5777   -3.7409   -0.1372 H         1 <0>         0.0719
     80 H37        -4.1195    0.0762    4.7551 H         1 <0>         0.0609
     81 H38         0.5463   -0.0881   -2.0483 H         1 <0>         0.1063
     82 H39        -5.6803    0.6076   -0.6389 H         1 <0>         0.4792
     83 H40        -6.9102    1.7391   -1.1082 H         1 <0>         0.4819
     84 H41        -4.6810    4.5340   -1.7236 H         1 <0>         0.4802
     85 H42        -6.3394    4.0071   -1.7346 H         1 <0>         0.4826
     86 H43         0.8216    0.7626    0.7549 H         1 <0>         0.3101
     87 H44        -4.4957   -3.1095    2.0656 H         1 <0>         0.3087
     88 H45        -3.3608    1.3133   -0.6101 H         1 <0>         0.4846
     89 H46       -11.4852   -6.0838   -0.2450 H         1 <0>         0.4194
     90 H47         1.8515   -6.8926    0.0654 H         1 <0>         0.4036
     91 H48         2.9483    0.8828   -0.2393 H         1 <0>         0.4114
     92 H49        -7.1203   -2.0275   -1.2920 H         1 <0>         0.3944
@<TRIPOS>BOND
     1    1    3 ar
     2    1    5 ar
     3    2    4 ar
     4    2    5 ar
     5    3    6 ar
     6    4    6 ar
     7    5   21 1
     8    6   40 1
     9    7   15 1
    10    7   34 am
    11    7   37 2
    12    8   27 1
    13    8   31 am
    14    8   38 2
    15    9   28 1
    16    9   35 am
    17    9   39 2
    18   10   32 1
    19   10   33 1
    20   10   36 1
    21   11   12 1
    22   11   16 1
    23   12   18 1
    24   13   15 1
    25   13   16 1
    26   14   17 1
    27   14   18 1
    28   15   31 1
    29   16   17 1
    30   17   31 1
    31   18   41 1
    32   19   29 1
    33   20   29 1
    34   21   28 1
    35   22   23 1
    36   22   25 1
    37   23   30 1
    38   24   27 1
    39   24   29 1
    40   25   36 1
    41   26   30 1
    42   26   42 1
    43   27   35 1
    44   28   43 1
    45   30   34 1
    46    1   44 1
    47    2   45 1
    48    3   46 1
    49    4   47 1
    50   11   48 1
    51   11   49 1
    52   12   50 1
    53   12   51 1
    54   13   52 1
    55   13   53 1
    56   14   54 1
    57   14   55 1
    58   15   56 1
    59   16   57 1
    60   17   58 1
    61   18   59 1
    62   19   60 1
    63   19   61 1
    64   19   62 1
    65   20   63 1
    66   20   64 1
    67   20   65 1
    68   21   66 1
    69   21   67 1
    70   22   68 1
    71   22   69 1
    72   23   70 1
    73   23   71 1
    74   24   72 1
    75   24   73 1
    76   25   74 1
    77   25   75 1
    78   26   76 1
    79   26   77 1
    80   27   78 1
    81   28   79 1
    82   29   80 1
    83   30   81 1
    84   32   82 1
    85   32   83 1
    86   33   84 1
    87   33   85 1
    88   34   86 1
    89   35   87 1
    90   36   88 1
    91   40   89 1
    92   41   90 1
    93   42   91 1
    94   43   92 1
@<TRIPOS>MOLECULE
1a2c_ligand_114
   92    94     0     0     0
SMALL
USER_CHARGES

mmff94s_NoEstat = 111.09
@<TRIPOS>ATOM
      1 C1          8.7134   -2.2414    5.6573 C.ar      1 <0>        -0.0708
      2 C2          7.1386   -3.9431    4.9781 C.ar      1 <0>        -0.0872
      3 C3          8.8315   -2.8496    6.9070 C.ar      1 <0>        -0.2241
      4 C4          7.2568   -4.5513    6.2278 C.ar      1 <0>        -0.1600
      5 C5          7.8686   -2.7964    4.7096 C.ar      1 <0>        -0.1356
      6 C6          8.1032   -4.0045    7.1923 C.ar      1 <0>         0.1290
      7 C7          0.1755   -1.0766    0.1327 C.2       1 <0>         0.6664
      8 C8          2.3785   -0.9757    2.2764 C.2       1 <0>         0.6651
      9 C9          5.2695   -1.7615    3.1198 C.2       1 <0>         0.6454
     10 C10        -0.0701    4.8054    0.2694 C.cat     1 <0>         0.6349
     11 C11         2.4521   -5.3069   -0.2561 C.3       1 <0>        -0.0642
     12 C12         1.2413   -5.9691    0.3982 C.3       1 <0>        -0.0747
     13 C13         1.5734   -2.9393   -0.7647 C.3       1 <0>        -0.0873
     14 C14         1.0938   -4.1277    2.1072 C.3       1 <0>        -0.1371
     15 C15         1.5650   -1.6216    0.0133 C.3       1 <0>         0.0360
     16 C16         2.5597   -3.8106    0.0203 C.3       1 <0>        -0.0720
     17 C17         2.2934   -3.4012    1.4755 C.3       1 <0>         0.1201
     18 C18         1.1411   -5.6363    1.8853 C.3       1 <0>         0.1453
     19 C19         3.8896   -0.8379    6.4377 C.3       1 <0>        -0.0968
     20 C20         2.2599   -2.7349    6.3694 C.3       1 <0>        -0.0986
     21 C21         7.7412   -2.1384    3.3563 C.3       1 <0>        -0.0191
     22 C22        -0.8155    2.0502   -2.2095 C.3       1 <0>        -0.1009
     23 C23        -1.7941    0.8762   -2.3301 C.3       1 <0>        -0.0942
     24 C24         1.9925   -0.8489    4.7298 C.3       1 <0>        -0.0988
     25 C25        -1.0238    2.8078   -0.9000 C.3       1 <0>         0.1966
     26 C26        -2.7214   -1.3050   -1.3187 C.3       1 <0>         0.1128
     27 C27         2.8496   -1.4560    3.6253 C.3       1 <0>         0.0786
     28 C28         6.6222   -1.0920    3.3282 C.3       1 <0>         0.0744
     29 C29         2.4383   -1.2292    6.1562 C.3       1 <0>        -0.0678
     30 C30        -1.7203   -0.1547   -1.1858 C.3       1 <0>         0.1065
     31 N1          2.0322   -1.9586    1.3590 N.am      1 <0>        -0.4315
     32 N2          0.8414    5.8554    0.3094 N.pl3     1 <0>        -0.8671
     33 N3         -0.9638    4.6431    1.3225 N.pl3     1 <0>        -0.8581
     34 N4         -0.3878   -0.7030   -1.0725 N.am      1 <0>        -0.5687
     35 N5          4.2184   -1.0331    3.6724 N.am      1 <0>        -0.5746
     36 N6         -0.0983    3.9125   -0.8157 N.pl3     1 <0>        -0.7533
     37 O1         -0.3509   -1.0007    1.2367 O.2       1 <0>        -0.5843
     38 O2          2.3230    0.2335    2.0409 O.2       1 <0>        -0.6812
     39 O3          5.1476   -2.8360    2.5359 O.2       1 <0>        -0.5788
     40 O4          8.2197   -4.5989    8.4112 O.3       1 <0>        -0.4938
     41 O5          2.2611   -6.1715    2.5852 O.3       1 <0>        -0.6030
     42 O6         -2.4752   -2.0231   -2.5206 O.3       1 <0>        -0.5860
     43 O7          6.8495   -0.2021    2.2447 O.3       1 <0>        -0.6021
     44 H1          9.2846   -1.3419    5.4443 H         1 <0>         0.1412
     45 H2          6.4769   -4.3764    4.2325 H         1 <0>         0.1451
     46 H3          9.4925   -2.4190    7.6540 H         1 <0>         0.1336
     47 H4          6.6874   -5.4515    6.4438 H         1 <0>         0.1567
     48 H5          3.3605   -5.7937    0.1218 H         1 <0>         0.0649
     49 H6          2.4319   -5.4897   -1.3370 H         1 <0>         0.0476
     50 H7          0.3241   -5.6545   -0.1129 H         1 <0>         0.0641
     51 H8          1.3294   -7.0545    0.2691 H         1 <0>         0.0484
     52 H9          0.5754   -3.3919   -0.8000 H         1 <0>         0.0596
     53 H10         1.8977   -2.7914   -1.8003 H         1 <0>         0.0757
     54 H11         1.0807   -3.9085    3.1823 H         1 <0>         0.0782
     55 H12         0.1523   -3.7376    1.7002 H         1 <0>         0.0812
     56 H13         2.2202   -0.8626   -0.4249 H         1 <0>         0.0731
     57 H14         3.5726   -3.4842   -0.2571 H         1 <0>         0.0511
     58 H15         3.1875   -3.5701    2.0864 H         1 <0>         0.0753
     59 H16         0.2435   -6.1003    2.3075 H         1 <0>         0.0427
     60 H17         4.2001   -1.1859    7.4289 H         1 <0>         0.0450
     61 H18         4.0203    0.2482    6.4220 H         1 <0>         0.0406
     62 H19         4.5693   -1.2752    5.6986 H         1 <0>         0.0274
     63 H20         2.8852   -3.3113    5.6789 H         1 <0>         0.0476
     64 H21         2.5335   -3.0185    7.3913 H         1 <0>         0.0170
     65 H22         1.2173   -3.0301    6.2104 H         1 <0>         0.0477
     66 H23         7.5546   -2.9097    2.5971 H         1 <0>         0.0814
     67 H24         8.7095   -1.6918    3.0973 H         1 <0>         0.0685
     68 H25         0.2178    1.6866   -2.2519 H         1 <0>         0.1016
     69 H26        -0.9442    2.7400   -3.0523 H         1 <0>         0.0660
     70 H27        -1.6130    0.3584   -3.2819 H         1 <0>         0.0512
     71 H28        -2.8171    1.2691   -2.3922 H         1 <0>         0.0454
     72 H29         0.9469   -1.1516    4.5828 H         1 <0>         0.0575
     73 H30         2.0032    0.2464    4.6399 H         1 <0>         0.0743
     74 H31        -0.8652    2.1409   -0.0459 H         1 <0>         0.0662
     75 H32        -2.0467    3.1933   -0.8380 H         1 <0>         0.0622
     76 H33        -3.7565   -0.9478   -1.3308 H         1 <0>         0.0321
     77 H34        -2.6144   -2.0048   -0.4820 H         1 <0>         0.0204
     78 H35         2.8203   -2.5449    3.6159 H         1 <0>         0.0749
     79 H36         6.5944   -0.5059    4.2543 H         1 <0>         0.0719
     80 H37         1.7968   -0.7138    6.8816 H         1 <0>         0.0609
     81 H38        -1.9472    0.3883   -0.2591 H         1 <0>         0.1063
     82 H39         1.5143    6.0117   -0.4363 H         1 <0>         0.4792
     83 H40         0.8610    6.5006    1.0958 H         1 <0>         0.4819
     84 H41        -1.6432    3.8862    1.3255 H         1 <0>         0.4802
     85 H42        -0.9620    5.2780    2.1172 H         1 <0>         0.4826
     86 H43         0.1607   -0.8193   -1.9192 H         1 <0>         0.3101
     87 H44         4.4349   -0.1495    4.1364 H         1 <0>         0.3087
     88 H45         0.5835    4.0786   -1.5659 H         1 <0>         0.4846
     89 H46         8.3834   -3.9314    9.0965 H         1 <0>         0.4194
     90 H47         2.7873   -5.4145    2.8873 H         1 <0>         0.4036
     91 H48        -2.8906   -1.5183   -3.2383 H         1 <0>         0.4114
     92 H49         7.7718   -0.3269    1.9673 H         1 <0>         0.3944
@<TRIPOS>BOND
     1    1    3 ar
     2    1    5 ar
     3    2    4 ar
     4    2    5 ar
     5    3    6 ar
     6    4    6 ar
     7    5   21 1
     8    6   40 1
     9    7   15 1
    10    7   34 am
    11    7   37 2
    12    8   27 1
    13    8   31 am
    14    8   38 2
    15    9   28 1
    16    9   35 am
    17    9   39 2
    18   10   32 1
    19   10   33 1
    20   10   36 1
    21   11   12 1
    22   11   16 1
    23   12   18 1
    24   13   15 1
    25   13   16 1
    26   14   17 1
    27   14   18 1
    28   15   31 1
    29   16   17 1
    30   17   31 1
    31   18   41 1
    32   19   29 1
    33   20   29 1
    34   21   28 1
    35   22   23 1
    36   22   25 1
    37   23   30 1
    38   24   27 1
    39   24   29 1
    40   25   36 1
    41   26   30 1
    42   26   42 1
    43   27   35 1
    44   28   43 1
    45   30   34 1
    46    1   44 1
    47    2   45 1
    48    3   46 1
    49    4   47 1
    50   11   48 1
    51   11   49 1
    52   12   50 1
    53   12   51 1
    54   13   52 1
    55   13   53 1
    56   14   54 1
    57   14   55 1
    58   15   56 1
    59   16   57 1
    60   17   58 1
    61   18   59 1
    62   19   60 1
    63   19   61 1
    64   19   62 1
    65   20   63 1
    66   20   64 1
    67   20   65 1
    68   21   66 1
    69   21   67 1
    70   22   68 1
    71   22   69 1
    72   23   70 1
    73   23   71 1
    74   24   72 1
    75   24   73 1
    76   25   74 1
    77   25   75 1
    78   26   76 1
    79   26   77 1
    80   27   78 1
    81   28   79 1
    82   29   80 1
    83   30   81 1
    84   32   82 1
    85   32   83 1
    86   33   84 1
    87   33   85 1
    88   34   86 1
    89   35   87 1
    90   36   88 1
    91   40   89 1
    92   41   90 1
    93   42   91 1
    94   43   92 1
@<TRIPOS>MOLECULE
1a2c_ligand_115
   92    94     0     0     0
SMALL
USER_CHARGES

mmff94s_NoEstat = 111.09
@<TRIPOS>ATOM
      1 C1         -7.7594   -0.6221    0.4299 C.ar      1 <0>        -0.0708
      2 C2         -5.6879    0.2837   -0.4219 C.ar      1 <0>        -0.0872
      3 C3         -8.0094    0.5771    1.0970 C.ar      1 <0>        -0.2241
      4 C4         -5.9379    1.4829    0.2452 C.ar      1 <0>        -0.1600
      5 C5         -6.6020   -0.7527   -0.3206 C.ar      1 <0>        -0.1356
      6 C6         -7.0987    1.6297    1.0046 C.ar      1 <0>         0.1290
      7 C7         -0.0512   -1.0561    0.2993 C.2       1 <0>         0.6664
      8 C8         -1.8469   -3.0457    2.1630 C.2       1 <0>         0.6651
      9 C9         -4.1811   -2.4610    0.1870 C.2       1 <0>         0.6454
     10 C10        -3.3500    0.4457   -4.1011 C.cat     1 <0>         0.6349
     11 C11         2.5186   -3.1911    0.6823 C.3       1 <0>        -0.0642
     12 C12         2.4580   -4.6414    0.2376 C.3       1 <0>        -0.0747
     13 C13         1.4874   -1.4827    2.2418 C.3       1 <0>        -0.0873
     14 C14         0.4946   -5.0934    1.7133 C.3       1 <0>        -0.1371
     15 C15         0.0412   -1.4176    1.7503 C.3       1 <0>         0.0360
     16 C16         1.8865   -2.9529    2.0632 C.3       1 <0>        -0.0720
     17 C17         0.5665   -3.7001    2.3454 C.3       1 <0>         0.1201
     18 C18         1.0248   -5.1525    0.2868 C.3       1 <0>         0.1453
     19 C19        -5.3726   -0.5418    3.1302 C.3       1 <0>        -0.0968
     20 C20        -3.4397    1.0389    2.9738 C.3       1 <0>        -0.0986
     21 C21        -6.3317   -2.0507   -1.0434 C.3       1 <0>        -0.0191
     22 C22        -0.5396    2.6263   -2.8210 C.3       1 <0>        -0.1009
     23 C23        -0.4337    2.0012   -1.4250 C.3       1 <0>        -0.0942
     24 C24        -2.9973   -1.3585    3.5851 C.3       1 <0>        -0.0988
     25 C25        -1.1768    1.6547   -3.8119 C.3       1 <0>         0.1966
     26 C26         1.9058    0.9774   -1.7696 C.3       1 <0>         0.1128
     27 C27        -2.7865   -1.8644    2.1628 C.3       1 <0>         0.0786
     28 C28        -5.5432   -3.0384   -0.1771 C.3       1 <0>         0.0744
     29 C29        -3.9969   -0.1898    3.6979 C.3       1 <0>        -0.0678
     30 C30         0.4555    0.7445   -1.3388 C.3       1 <0>         0.1065
     31 N1         -0.4979   -2.7598    1.9615 N.am      1 <0>        -0.4315
     32 N2         -4.6259    0.1367   -3.6415 N.pl3     1 <0>        -0.8671
     33 N3         -2.9073   -0.1094   -5.2969 N.pl3     1 <0>        -0.8581
     34 N4          0.4455    0.1980   -0.0008 N.am      1 <0>        -0.5687
     35 N5         -3.9799   -2.3853    1.5634 N.am      1 <0>        -0.5746
     36 N6         -2.5084    1.3070   -3.3760 N.pl3     1 <0>        -0.7533
     37 O1         -0.5362   -1.8555   -0.4928 O.2       1 <0>        -0.5843
     38 O2         -2.2998   -4.1783    2.3409 O.2       1 <0>        -0.6812
     39 O3         -3.3708   -2.0954   -0.6616 O.2       1 <0>        -0.5788
     40 O4         -7.3435    2.8004    1.6543 O.3       1 <0>        -0.4938
     41 O5          0.9879   -6.5072   -0.1510 O.3       1 <0>        -0.6030
     42 O6          2.6391   -0.2366   -1.6731 O.3       1 <0>        -0.5860
     43 O7         -5.3363   -4.2353   -0.9135 O.3       1 <0>        -0.6021
     44 H1         -8.4746   -1.4364    0.5079 H         1 <0>         0.1412
     45 H2         -4.7810    0.1784   -1.0117 H         1 <0>         0.1451
     46 H3         -8.9153    0.6853    1.6869 H         1 <0>         0.1336
     47 H4         -5.2250    2.2997    0.1686 H         1 <0>         0.1567
     48 H5          3.5627   -2.8549    0.7003 H         1 <0>         0.0649
     49 H6          2.0259   -2.5829   -0.0837 H         1 <0>         0.0476
     50 H7          2.8567   -4.7427   -0.7790 H         1 <0>         0.0641
     51 H8          3.1032   -5.2618    0.8729 H         1 <0>         0.0484
     52 H9          2.1569   -0.7868    1.7257 H         1 <0>         0.0596
     53 H10         1.5124   -1.2395    3.3116 H         1 <0>         0.0757
     54 H11         1.0921   -5.7802    2.3299 H         1 <0>         0.0782
     55 H12        -0.5175   -5.5090    1.7393 H         1 <0>         0.0812
     56 H13        -0.5378   -0.6778    2.3126 H         1 <0>         0.0731
     57 H14         2.6304   -3.2407    2.8169 H         1 <0>         0.0511
     58 H15         0.4523   -3.8218    3.4319 H         1 <0>         0.0753
     59 H16         0.3841   -4.5700   -0.3844 H         1 <0>         0.0427
     60 H17        -6.0375    0.3284    3.1563 H         1 <0>         0.0450
     61 H18        -5.8542   -1.3328    3.7128 H         1 <0>         0.0406
     62 H19        -5.2988   -0.8789    2.0908 H         1 <0>         0.0274
     63 H20        -3.3028    0.8425    1.9049 H         1 <0>         0.0476
     64 H21        -4.1178    1.8926    3.0773 H         1 <0>         0.0170
     65 H22        -2.4708    1.3315    3.3922 H         1 <0>         0.0477
     66 H23        -5.7806   -1.8391   -1.9695 H         1 <0>         0.0814
     67 H24        -7.2926   -2.4771   -1.3579 H         1 <0>         0.0685
     68 H25        -1.1414    3.5417   -2.7803 H         1 <0>         0.1016
     69 H26         0.4540    2.9154   -3.1840 H         1 <0>         0.0660
     70 H27        -1.4419    1.7433   -1.0734 H         1 <0>         0.0512
     71 H28        -0.0553    2.7561   -0.7237 H         1 <0>         0.0454
     72 H29        -2.0302   -1.0518    4.0061 H         1 <0>         0.0575
     73 H30        -3.3514   -2.1846    4.2177 H         1 <0>         0.0743
     74 H31        -0.5754    0.7428   -3.8900 H         1 <0>         0.0662
     75 H32        -1.2333    2.1046   -4.8084 H         1 <0>         0.0622
     76 H33         2.4001    1.7344   -1.1517 H         1 <0>         0.0321
     77 H34         1.9468    1.3120   -2.8125 H         1 <0>         0.0204
     78 H35        -2.3647   -1.1082    1.5019 H         1 <0>         0.0749
     79 H36        -6.0846   -3.2900    0.7426 H         1 <0>         0.0719
     80 H37        -4.1195    0.0762    4.7551 H         1 <0>         0.0609
     81 H38         0.0149    0.0012   -2.0158 H         1 <0>         0.1063
     82 H39        -4.9910    0.5172   -2.7724 H         1 <0>         0.4792
     83 H40        -5.2337   -0.4873   -4.1671 H         1 <0>         0.4819
     84 H41        -1.9802    0.0953   -5.6619 H         1 <0>         0.4802
     85 H42        -3.4997   -0.7341   -5.8386 H         1 <0>         0.4826
     86 H43         0.8216    0.7626    0.7549 H         1 <0>         0.3101
     87 H44        -4.7231   -2.7191    2.1790 H         1 <0>         0.3087
     88 H45        -2.8856    1.6887   -2.5001 H         1 <0>         0.4846
     89 H46        -7.8291    2.6330    2.4777 H         1 <0>         0.4194
     90 H47         1.8515   -6.8926    0.0654 H         1 <0>         0.4036
     91 H48         2.8853   -0.3414   -0.7399 H         1 <0>         0.4114
     92 H49        -5.9568   -4.2165   -1.6604 H         1 <0>         0.3944
@<TRIPOS>BOND
     1    1    3 ar
     2    1    5 ar
     3    2    4 ar
     4    2    5 ar
     5    3    6 ar
     6    4    6 ar
     7    5   21 1
     8    6   40 1
     9    7   15 1
    10    7   34 am
    11    7   37 2
    12    8   27 1
    13    8   31 am
    14    8   38 2
    15    9   28 1
    16    9   35 am
    17    9   39 2
    18   10   32 1
    19   10   33 1
    20   10   36 1
    21   11   12 1
    22   11   16 1
    23   12   18 1
    24   13   15 1
    25   13   16 1
    26   14   17 1
    27   14   18 1
    28   15   31 1
    29   16   17 1
    30   17   31 1
    31   18   41 1
    32   19   29 1
    33   20   29 1
    34   21   28 1
    35   22   23 1
    36   22   25 1
    37   23   30 1
    38   24   27 1
    39   24   29 1
    40   25   36 1
    41   26   30 1
    42   26   42 1
    43   27   35 1
    44   28   43 1
    45   30   34 1
    46    1   44 1
    47    2   45 1
    48    3   46 1
    49    4   47 1
    50   11   48 1
    51   11   49 1
    52   12   50 1
    53   12   51 1
    54   13   52 1
    55   13   53 1
    56   14   54 1
    57   14   55 1
    58   15   56 1
    59   16   57 1
    60   17   58 1
    61   18   59 1
    62   19   60 1
    63   19   61 1
    64   19   62 1
    65   20   63 1
    66   20   64 1
    67   20   65 1
    68   21   66 1
    69   21   67 1
    70   22   68 1
    71   22   69 1
    72   23   70 1
    73   23   71 1
    74   24   72 1
    75   24   73 1
    76   25   74 1
    77   25   75 1
    78   26   76 1
    79   26   77 1
    80   27   78 1
    81   28   79 1
    82   29   80 1
    83   30   81 1
    84   32   82 1
    85   32   83 1
    86   33   84 1
    87   33   85 1
    88   34   86 1
    89   35   87 1
    90   36   88 1
    91   40   89 1
    92   41   90 1
    93   42   91 1
    94   43   92 1
@<TRIPOS>MOLECULE
1a2c_ligand_116
   92    94     0     0     0
SMALL
USER_CHARGES

mmff94s_NoEstat = 111.10
@<TRIPOS>ATOM
      1 C1          8.3103   -1.0475    6.6490 C.ar      1 <0>        -0.0708
      2 C2          6.7594   -2.8998    6.6321 C.ar      1 <0>        -0.0872
      3 C3          8.2150   -0.9804    8.0390 C.ar      1 <0>        -0.2241
      4 C4          6.6640   -2.8328    8.0220 C.ar      1 <0>        -0.1600
      5 C5          7.5813   -2.0063    5.9642 C.ar      1 <0>        -0.1356
      6 C6          7.3919   -1.8731    8.7255 C.ar      1 <0>         0.1290
      7 C7          0.1755   -1.0766    0.1327 C.2       1 <0>         0.6664
      8 C8          2.3785   -0.9757    2.2764 C.2       1 <0>         0.6651
      9 C9          5.2968   -1.9145    3.7000 C.2       1 <0>         0.6454
     10 C10        -2.8631    4.0421    0.2667 C.cat     1 <0>         0.6349
     11 C11         2.4521   -5.3069   -0.2561 C.3       1 <0>        -0.0642
     12 C12         1.2413   -5.9691    0.3982 C.3       1 <0>        -0.0747
     13 C13         1.5734   -2.9393   -0.7647 C.3       1 <0>        -0.0873
     14 C14         1.0938   -4.1277    2.1072 C.3       1 <0>        -0.1371
     15 C15         1.5650   -1.6216    0.0133 C.3       1 <0>         0.0360
     16 C16         2.5597   -3.8106    0.0203 C.3       1 <0>        -0.0720
     17 C17         2.2934   -3.4012    1.4755 C.3       1 <0>         0.1201
     18 C18         1.1411   -5.6363    1.8853 C.3       1 <0>         0.1453
     19 C19         3.8896   -0.8379    6.4377 C.3       1 <0>        -0.0968
     20 C20         2.2599   -2.7349    6.3694 C.3       1 <0>        -0.0986
     21 C21         7.6850   -2.0794    4.4595 C.3       1 <0>        -0.0191
     22 C22        -0.8155    2.0502   -2.2095 C.3       1 <0>        -0.1009
     23 C23        -1.7941    0.8762   -2.3301 C.3       1 <0>        -0.0942
     24 C24         1.9925   -0.8489    4.7298 C.3       1 <0>        -0.0988
     25 C25        -1.0238    2.8078   -0.9000 C.3       1 <0>         0.1966
     26 C26        -2.7214   -1.3050   -1.3187 C.3       1 <0>         0.1128
     27 C27         2.8496   -1.4560    3.6253 C.3       1 <0>         0.0786
     28 C28         6.6400   -1.1984    3.7670 C.3       1 <0>         0.0744
     29 C29         2.4383   -1.2292    6.1562 C.3       1 <0>        -0.0678
     30 C30        -1.7203   -0.1547   -1.1858 C.3       1 <0>         0.1065
     31 N1          2.0322   -1.9586    1.3590 N.am      1 <0>        -0.4315
     32 N2         -4.1696    4.5193    0.2852 N.pl3     1 <0>        -0.8671
     33 N3         -2.0366    4.2867    1.3580 N.pl3     1 <0>        -0.8581
     34 N4         -0.3878   -0.7030   -1.0725 N.am      1 <0>        -0.5687
     35 N5          4.2184   -1.0331    3.6724 N.am      1 <0>        -0.5746
     36 N6         -2.3718    3.3203   -0.8349 N.pl3     1 <0>        -0.7533
     37 O1         -0.3509   -1.0007    1.2367 O.2       1 <0>        -0.5843
     38 O2          2.3230    0.2335    2.0409 O.2       1 <0>        -0.6812
     39 O3          5.2019   -3.1398    3.6875 O.2       1 <0>        -0.5788
     40 O4          7.3001   -1.8086   10.0820 O.3       1 <0>        -0.4938
     41 O5          2.2611   -6.1715    2.5852 O.3       1 <0>        -0.6030
     42 O6         -2.4752   -2.0231   -2.5206 O.3       1 <0>        -0.5860
     43 O7          7.0680   -0.9312    2.4393 O.3       1 <0>        -0.6021
     44 H1          8.9541   -0.3478    6.1229 H         1 <0>         0.1412
     45 H2          6.1888   -3.6511    6.0922 H         1 <0>         0.1451
     46 H3          8.7845   -0.2308    8.5812 H         1 <0>         0.1336
     47 H4          6.0217   -3.5316    8.5514 H         1 <0>         0.1567
     48 H5          3.3605   -5.7937    0.1218 H         1 <0>         0.0649
     49 H6          2.4319   -5.4897   -1.3370 H         1 <0>         0.0476
     50 H7          0.3241   -5.6545   -0.1129 H         1 <0>         0.0641
     51 H8          1.3294   -7.0545    0.2691 H         1 <0>         0.0484
     52 H9          0.5754   -3.3919   -0.8000 H         1 <0>         0.0596
     53 H10         1.8977   -2.7914   -1.8003 H         1 <0>         0.0757
     54 H11         1.0807   -3.9085    3.1823 H         1 <0>         0.0782
     55 H12         0.1523   -3.7376    1.7002 H         1 <0>         0.0812
     56 H13         2.2202   -0.8626   -0.4249 H         1 <0>         0.0731
     57 H14         3.5726   -3.4842   -0.2571 H         1 <0>         0.0511
     58 H15         3.1875   -3.5701    2.0864 H         1 <0>         0.0753
     59 H16         0.2435   -6.1003    2.3075 H         1 <0>         0.0427
     60 H17         4.2001   -1.1859    7.4289 H         1 <0>         0.0450
     61 H18         4.0203    0.2482    6.4220 H         1 <0>         0.0406
     62 H19         4.5693   -1.2752    5.6986 H         1 <0>         0.0274
     63 H20         2.8852   -3.3113    5.6789 H         1 <0>         0.0476
     64 H21         2.5335   -3.0185    7.3913 H         1 <0>         0.0170
     65 H22         1.2173   -3.0301    6.2104 H         1 <0>         0.0477
     66 H23         7.5676   -3.1238    4.1408 H         1 <0>         0.0814
     67 H24         8.7032   -1.7908    4.1693 H         1 <0>         0.0685
     68 H25         0.2178    1.6866   -2.2519 H         1 <0>         0.1016
     69 H26        -0.9442    2.7400   -3.0523 H         1 <0>         0.0660
     70 H27        -1.6130    0.3584   -3.2819 H         1 <0>         0.0512
     71 H28        -2.8171    1.2691   -2.3922 H         1 <0>         0.0454
     72 H29         0.9469   -1.1516    4.5828 H         1 <0>         0.0575
     73 H30         2.0032    0.2464    4.6399 H         1 <0>         0.0743
     74 H31        -0.3188    3.6426   -0.8277 H         1 <0>         0.0662
     75 H32        -0.8506    2.1484   -0.0433 H         1 <0>         0.0622
     76 H33        -3.7565   -0.9478   -1.3308 H         1 <0>         0.0321
     77 H34        -2.6144   -2.0048   -0.4820 H         1 <0>         0.0204
     78 H35         2.8203   -2.5449    3.6159 H         1 <0>         0.0749
     79 H36         6.5115   -0.2411    4.2859 H         1 <0>         0.0719
     80 H37         1.7968   -0.7138    6.8816 H         1 <0>         0.0609
     81 H38        -1.9472    0.3883   -0.2591 H         1 <0>         0.1063
     82 H39        -4.8087    4.3663   -0.4903 H         1 <0>         0.4792
     83 H40        -4.5236    5.0421    1.0829 H         1 <0>         0.4819
     84 H41        -1.0762    3.9524    1.3774 H         1 <0>         0.4802
     85 H42        -2.3714    4.8057    2.1662 H         1 <0>         0.4826
     86 H43         0.1607   -0.8193   -1.9192 H         1 <0>         0.3101
     87 H44         4.4137   -0.0309    3.6864 H         1 <0>         0.3087
     88 H45        -3.0246    3.1684   -1.6133 H         1 <0>         0.4846
     89 H46         7.3998   -0.8913   10.3827 H         1 <0>         0.4194
     90 H47         2.7873   -5.4145    2.8873 H         1 <0>         0.4036
     91 H48        -2.8906   -1.5183   -3.2383 H         1 <0>         0.4114
     92 H49         8.0124   -1.1538    2.3984 H         1 <0>         0.3944
@<TRIPOS>BOND
     1    1    3 ar
     2    1    5 ar
     3    2    4 ar
     4    2    5 ar
     5    3    6 ar
     6    4    6 ar
     7    5   21 1
     8    6   40 1
     9    7   15 1
    10    7   34 am
    11    7   37 2
    12    8   27 1
    13    8   31 am
    14    8   38 2
    15    9   28 1
    16    9   35 am
    17    9   39 2
    18   10   32 1
    19   10   33 1
    20   10   36 1
    21   11   12 1
    22   11   16 1
    23   12   18 1
    24   13   15 1
    25   13   16 1
    26   14   17 1
    27   14   18 1
    28   15   31 1
    29   16   17 1
    30   17   31 1
    31   18   41 1
    32   19   29 1
    33   20   29 1
    34   21   28 1
    35   22   23 1
    36   22   25 1
    37   23   30 1
    38   24   27 1
    39   24   29 1
    40   25   36 1
    41   26   30 1
    42   26   42 1
    43   27   35 1
    44   28   43 1
    45   30   34 1
    46    1   44 1
    47    2   45 1
    48    3   46 1
    49    4   47 1
    50   11   48 1
    51   11   49 1
    52   12   50 1
    53   12   51 1
    54   13   52 1
    55   13   53 1
    56   14   54 1
    57   14   55 1
    58   15   56 1
    59   16   57 1
    60   17   58 1
    61   18   59 1
    62   19   60 1
    63   19   61 1
    64   19   62 1
    65   20   63 1
    66   20   64 1
    67   20   65 1
    68   21   66 1
    69   21   67 1
    70   22   68 1
    71   22   69 1
    72   23   70 1
    73   23   71 1
    74   24   72 1
    75   24   73 1
    76   25   74 1
    77   25   75 1
    78   26   76 1
    79   26   77 1
    80   27   78 1
    81   28   79 1
    82   29   80 1
    83   30   81 1
    84   32   82 1
    85   32   83 1
    86   33   84 1
    87   33   85 1
    88   34   86 1
    89   35   87 1
    90   36   88 1
    91   40   89 1
    92   41   90 1
    93   42   91 1
    94   43   92 1
@<TRIPOS>MOLECULE
1a2c_ligand_117
   92    94     0     0     0
SMALL
USER_CHARGES

mmff94s_NoEstat = 111.19
@<TRIPOS>ATOM
      1 C1          9.6781   -0.8835    4.6459 C.ar      1 <0>        -0.0708
      2 C2          8.0683    0.3374    5.9707 C.ar      1 <0>        -0.0872
      3 C3         10.6899   -0.0331    5.0917 C.ar      1 <0>        -0.2241
      4 C4          9.0801    1.1878    6.4165 C.ar      1 <0>        -0.1600
      5 C5          8.3809   -0.6869    5.0914 C.ar      1 <0>        -0.1356
      6 C6         10.3909    1.0026    5.9770 C.ar      1 <0>         0.1290
      7 C7          0.1755   -1.0766    0.1327 C.2       1 <0>         0.6664
      8 C8          2.3785   -0.9757    2.2764 C.2       1 <0>         0.6651
      9 C9          5.2695   -1.7615    3.1198 C.2       1 <0>         0.6454
     10 C10         0.4790    2.3309   -5.2461 C.cat     1 <0>         0.6349
     11 C11         2.4521   -5.3069   -0.2561 C.3       1 <0>        -0.0642
     12 C12         1.2413   -5.9691    0.3982 C.3       1 <0>        -0.0747
     13 C13         1.5734   -2.9393   -0.7647 C.3       1 <0>        -0.0873
     14 C14         1.0938   -4.1277    2.1072 C.3       1 <0>        -0.1371
     15 C15         1.5650   -1.6216    0.0133 C.3       1 <0>         0.0360
     16 C16         2.5597   -3.8106    0.0203 C.3       1 <0>        -0.0720
     17 C17         2.2934   -3.4012    1.4755 C.3       1 <0>         0.1201
     18 C18         1.1411   -5.6363    1.8853 C.3       1 <0>         0.1453
     19 C19         3.8896   -0.8379    6.4377 C.3       1 <0>        -0.0968
     20 C20         2.2599   -2.7349    6.3694 C.3       1 <0>        -0.0986
     21 C21         7.2857   -1.6080    4.6093 C.3       1 <0>        -0.0191
     22 C22        -0.8155    2.0502   -2.2095 C.3       1 <0>        -0.1009
     23 C23        -1.7941    0.8762   -2.3301 C.3       1 <0>        -0.0942
     24 C24         1.9925   -0.8489    4.7298 C.3       1 <0>        -0.0988
     25 C25        -1.0015    3.0414   -3.3563 C.3       1 <0>         0.1966
     26 C26        -2.7214   -1.3050   -1.3187 C.3       1 <0>         0.1128
     27 C27         2.8496   -1.4560    3.6253 C.3       1 <0>         0.0786
     28 C28         6.6222   -1.0920    3.3282 C.3       1 <0>         0.0744
     29 C29         2.4383   -1.2292    6.1562 C.3       1 <0>        -0.0678
     30 C30        -1.7203   -0.1547   -1.1858 C.3       1 <0>         0.1065
     31 N1          2.0322   -1.9586    1.3590 N.am      1 <0>        -0.4315
     32 N2          0.6475    1.6813   -6.4645 N.pl3     1 <0>        -0.8671
     33 N3          1.5760    2.9373   -4.6437 N.pl3     1 <0>        -0.8581
     34 N4         -0.3878   -0.7030   -1.0725 N.am      1 <0>        -0.5687
     35 N5          4.2184   -1.0331    3.6724 N.am      1 <0>        -0.5746
     36 N6         -0.7789    2.3814   -4.6207 N.pl3     1 <0>        -0.7533
     37 O1         -0.3509   -1.0007    1.2367 O.2       1 <0>        -0.5843
     38 O2          2.3230    0.2335    2.0409 O.2       1 <0>        -0.6812
     39 O3          5.1476   -2.8360    2.5359 O.2       1 <0>        -0.5788
     40 O4         11.3785    1.8314    6.4133 O.3       1 <0>        -0.4938
     41 O5          2.2611   -6.1715    2.5852 O.3       1 <0>        -0.6030
     42 O6         -2.4752   -2.0231   -2.5206 O.3       1 <0>        -0.5860
     43 O7          7.4509   -1.4094    2.2191 O.3       1 <0>        -0.6021
     44 H1          9.9207   -1.6873    3.9562 H         1 <0>         0.1412
     45 H2          7.0498    0.4890    6.3187 H         1 <0>         0.1451
     46 H3         11.7089   -0.1826    4.7459 H         1 <0>         0.1336
     47 H4          8.8410    1.9923    7.1070 H         1 <0>         0.1567
     48 H5          3.3605   -5.7937    0.1218 H         1 <0>         0.0649
     49 H6          2.4319   -5.4897   -1.3370 H         1 <0>         0.0476
     50 H7          0.3241   -5.6545   -0.1129 H         1 <0>         0.0641
     51 H8          1.3294   -7.0545    0.2691 H         1 <0>         0.0484
     52 H9          0.5754   -3.3919   -0.8000 H         1 <0>         0.0596
     53 H10         1.8977   -2.7914   -1.8003 H         1 <0>         0.0757
     54 H11         1.0807   -3.9085    3.1823 H         1 <0>         0.0782
     55 H12         0.1523   -3.7376    1.7002 H         1 <0>         0.0812
     56 H13         2.2202   -0.8626   -0.4249 H         1 <0>         0.0731
     57 H14         3.5726   -3.4842   -0.2571 H         1 <0>         0.0511
     58 H15         3.1875   -3.5701    2.0864 H         1 <0>         0.0753
     59 H16         0.2435   -6.1003    2.3075 H         1 <0>         0.0427
     60 H17         4.2001   -1.1859    7.4289 H         1 <0>         0.0450
     61 H18         4.0203    0.2482    6.4220 H         1 <0>         0.0406
     62 H19         4.5693   -1.2752    5.6986 H         1 <0>         0.0274
     63 H20         2.8852   -3.3113    5.6789 H         1 <0>         0.0476
     64 H21         2.5335   -3.0185    7.3913 H         1 <0>         0.0170
     65 H22         1.2173   -3.0301    6.2104 H         1 <0>         0.0477
     66 H23         6.5349   -1.7208    5.4029 H         1 <0>         0.0814
     67 H24         7.7154   -2.6065    4.4600 H         1 <0>         0.0685
     68 H25        -0.9672    2.5721   -1.2575 H         1 <0>         0.1016
     69 H26         0.2183    1.6845   -2.2100 H         1 <0>         0.0660
     70 H27        -1.6130    0.3584   -3.2819 H         1 <0>         0.0512
     71 H28        -2.8171    1.2691   -2.3922 H         1 <0>         0.0454
     72 H29         0.9469   -1.1516    4.5828 H         1 <0>         0.0575
     73 H30         2.0032    0.2464    4.6399 H         1 <0>         0.0743
     74 H31        -0.2967    3.8737   -3.2572 H         1 <0>         0.0662
     75 H32        -2.0142    3.4573   -3.3438 H         1 <0>         0.0622
     76 H33        -3.7565   -0.9478   -1.3308 H         1 <0>         0.0321
     77 H34        -2.6144   -2.0048   -0.4820 H         1 <0>         0.0204
     78 H35         2.8203   -2.5449    3.6159 H         1 <0>         0.0749
     79 H36         6.4849   -0.0045    3.3546 H         1 <0>         0.0719
     80 H37         1.7968   -0.7138    6.8816 H         1 <0>         0.0609
     81 H38        -1.9472    0.3883   -0.2591 H         1 <0>         0.1063
     82 H39        -0.1248    1.2227   -6.9404 H         1 <0>         0.4792
     83 H40         1.5586    1.6451   -6.9156 H         1 <0>         0.4819
     84 H41         1.4882    3.4205   -3.7530 H         1 <0>         0.4802
     85 H42         2.4951    2.9142   -5.0788 H         1 <0>         0.4826
     86 H43         0.1607   -0.8193   -1.9192 H         1 <0>         0.3101
     87 H44         4.4349   -0.1495    4.1364 H         1 <0>         0.3087
     88 H45        -1.5543    1.9173   -5.1092 H         1 <0>         0.4846
     89 H46        12.0516    1.9448    5.7234 H         1 <0>         0.4194
     90 H47         2.7873   -5.4145    2.8873 H         1 <0>         0.4036
     91 H48        -2.8906   -1.5183   -3.2383 H         1 <0>         0.4114
     92 H49         8.3251   -1.6348    2.5769 H         1 <0>         0.3944
@<TRIPOS>BOND
     1    1    3 ar
     2    1    5 ar
     3    2    4 ar
     4    2    5 ar
     5    3    6 ar
     6    4    6 ar
     7    5   21 1
     8    6   40 1
     9    7   15 1
    10    7   34 am
    11    7   37 2
    12    8   27 1
    13    8   31 am
    14    8   38 2
    15    9   28 1
    16    9   35 am
    17    9   39 2
    18   10   32 1
    19   10   33 1
    20   10   36 1
    21   11   12 1
    22   11   16 1
    23   12   18 1
    24   13   15 1
    25   13   16 1
    26   14   17 1
    27   14   18 1
    28   15   31 1
    29   16   17 1
    30   17   31 1
    31   18   41 1
    32   19   29 1
    33   20   29 1
    34   21   28 1
    35   22   23 1
    36   22   25 1
    37   23   30 1
    38   24   27 1
    39   24   29 1
    40   25   36 1
    41   26   30 1
    42   26   42 1
    43   27   35 1
    44   28   43 1
    45   30   34 1
    46    1   44 1
    47    2   45 1
    48    3   46 1
    49    4   47 1
    50   11   48 1
    51   11   49 1
    52   12   50 1
    53   12   51 1
    54   13   52 1
    55   13   53 1
    56   14   54 1
    57   14   55 1
    58   15   56 1
    59   16   57 1
    60   17   58 1
    61   18   59 1
    62   19   60 1
    63   19   61 1
    64   19   62 1
    65   20   63 1
    66   20   64 1
    67   20   65 1
    68   21   66 1
    69   21   67 1
    70   22   68 1
    71   22   69 1
    72   23   70 1
    73   23   71 1
    74   24   72 1
    75   24   73 1
    76   25   74 1
    77   25   75 1
    78   26   76 1
    79   26   77 1
    80   27   78 1
    81   28   79 1
    82   29   80 1
    83   30   81 1
    84   32   82 1
    85   32   83 1
    86   33   84 1
    87   33   85 1
    88   34   86 1
    89   35   87 1
    90   36   88 1
    91   40   89 1
    92   41   90 1
    93   42   91 1
    94   43   92 1
@<TRIPOS>MOLECULE
1a2c_ligand_118
   92    94     0     0     0
SMALL
USER_CHARGES

mmff94s_NoEstat = 111.20
@<TRIPOS>ATOM
      1 C1          9.8229   -0.5325    2.5789 C.ar      1 <0>        -0.0708
      2 C2          9.6061   -2.2416    4.2728 C.ar      1 <0>        -0.0872
      3 C3         11.0859   -0.2043    3.0717 C.ar      1 <0>        -0.2241
      4 C4         10.8691   -1.9134    4.7656 C.ar      1 <0>        -0.1600
      5 C5          9.1000   -1.5468    3.1860 C.ar      1 <0>        -0.1356
      6 C6         11.6090   -0.8947    4.1650 C.ar      1 <0>         0.1290
      7 C7          0.1755   -1.0766    0.1327 C.2       1 <0>         0.6664
      8 C8          2.3785   -0.9757    2.2764 C.2       1 <0>         0.6651
      9 C9          5.2695   -1.7615    3.1198 C.2       1 <0>         0.6454
     10 C10        -0.7921    3.5473    2.6713 C.cat     1 <0>         0.6349
     11 C11         2.4521   -5.3069   -0.2561 C.3       1 <0>        -0.0642
     12 C12         1.2413   -5.9691    0.3982 C.3       1 <0>        -0.0747
     13 C13         1.5734   -2.9393   -0.7647 C.3       1 <0>        -0.0873
     14 C14         1.0938   -4.1277    2.1072 C.3       1 <0>        -0.1371
     15 C15         1.5650   -1.6216    0.0133 C.3       1 <0>         0.0360
     16 C16         2.5597   -3.8106    0.0203 C.3       1 <0>        -0.0720
     17 C17         2.2934   -3.4012    1.4755 C.3       1 <0>         0.1201
     18 C18         1.1411   -5.6363    1.8853 C.3       1 <0>         0.1453
     19 C19         3.8896   -0.8379    6.4377 C.3       1 <0>        -0.0968
     20 C20         2.2599   -2.7349    6.3694 C.3       1 <0>        -0.0986
     21 C21         7.7330   -1.9025    2.6521 C.3       1 <0>        -0.0191
     22 C22        -0.8392    2.2664   -0.8852 C.3       1 <0>        -0.1009
     23 C23        -1.6754    1.2905   -1.7214 C.3       1 <0>        -0.0942
     24 C24         1.9925   -0.8489    4.7298 C.3       1 <0>        -0.0988
     25 C25        -1.3442    2.3298    0.5545 C.3       1 <0>         0.1966
     26 C26        -2.5783   -1.1036   -2.0263 C.3       1 <0>         0.1128
     27 C27         2.8496   -1.4560    3.6253 C.3       1 <0>         0.0786
     28 C28         6.6222   -1.0920    3.3282 C.3       1 <0>         0.0744
     29 C29         2.4383   -1.2292    6.1562 C.3       1 <0>        -0.0678
     30 C30        -1.7203   -0.1547   -1.1858 C.3       1 <0>         0.1065
     31 N1          2.0322   -1.9586    1.3590 N.am      1 <0>        -0.4315
     32 N2          0.0035    4.4513    3.3675 N.pl3     1 <0>        -0.8671
     33 N3         -1.8434    2.9208    3.3318 N.pl3     1 <0>        -0.8581
     34 N4         -0.3878   -0.7030   -1.0725 N.am      1 <0>        -0.5687
     35 N5          4.2184   -1.0331    3.6724 N.am      1 <0>        -0.5746
     36 N6         -0.5475    3.2615    1.3170 N.pl3     1 <0>        -0.7533
     37 O1         -0.3509   -1.0007    1.2367 O.2       1 <0>        -0.5843
     38 O2          2.3230    0.2335    2.0409 O.2       1 <0>        -0.6812
     39 O3          5.1476   -2.8360    2.5359 O.2       1 <0>        -0.5788
     40 O4         12.8421   -0.5755    4.6448 O.3       1 <0>        -0.4938
     41 O5          2.2611   -6.1715    2.5852 O.3       1 <0>        -0.6030
     42 O6         -2.5724   -2.4015   -1.4465 O.3       1 <0>        -0.5860
     43 O7          6.5730    0.2013    2.7431 O.3       1 <0>        -0.6021
     44 H1          9.4236    0.0110    1.7269 H         1 <0>         0.1412
     45 H2          9.0369   -3.0369    4.7469 H         1 <0>         0.1451
     46 H3         11.6573    0.5899    2.5995 H         1 <0>         0.1336
     47 H4         11.2717   -2.4556    5.6171 H         1 <0>         0.1567
     48 H5          3.3605   -5.7937    0.1218 H         1 <0>         0.0649
     49 H6          2.4319   -5.4897   -1.3370 H         1 <0>         0.0476
     50 H7          0.3241   -5.6545   -0.1129 H         1 <0>         0.0641
     51 H8          1.3294   -7.0545    0.2691 H         1 <0>         0.0484
     52 H9          0.5754   -3.3919   -0.8000 H         1 <0>         0.0596
     53 H10         1.8977   -2.7914   -1.8003 H         1 <0>         0.0757
     54 H11         1.0807   -3.9085    3.1823 H         1 <0>         0.0782
     55 H12         0.1523   -3.7376    1.7002 H         1 <0>         0.0812
     56 H13         2.2202   -0.8626   -0.4249 H         1 <0>         0.0731
     57 H14         3.5726   -3.4842   -0.2571 H         1 <0>         0.0511
     58 H15         3.1875   -3.5701    2.0864 H         1 <0>         0.0753
     59 H16         0.2435   -6.1003    2.3075 H         1 <0>         0.0427
     60 H17         4.2001   -1.1859    7.4289 H         1 <0>         0.0450
     61 H18         4.0203    0.2482    6.4220 H         1 <0>         0.0406
     62 H19         4.5693   -1.2752    5.6986 H         1 <0>         0.0274
     63 H20         2.8852   -3.3113    5.6789 H         1 <0>         0.0476
     64 H21         2.5335   -3.0185    7.3913 H         1 <0>         0.0170
     65 H22         1.2173   -3.0301    6.2104 H         1 <0>         0.0477
     66 H23         7.5576   -2.9767    2.7987 H         1 <0>         0.0814
     67 H24         7.7350   -1.7453    1.5662 H         1 <0>         0.0685
     68 H25         0.2122    1.9562   -0.8821 H         1 <0>         0.1016
     69 H26        -0.8730    3.2698   -1.3263 H         1 <0>         0.0660
     70 H27        -1.2820    1.2733   -2.7469 H         1 <0>         0.0512
     71 H28        -2.7004    1.6751   -1.7996 H         1 <0>         0.0454
     72 H29         0.9469   -1.1516    4.5828 H         1 <0>         0.0575
     73 H30         2.0032    0.2464    4.6399 H         1 <0>         0.0743
     74 H31        -1.2851    1.3411    1.0218 H         1 <0>         0.0662
     75 H32        -2.3909    2.6501    0.5805 H         1 <0>         0.0622
     76 H33        -2.2157   -1.1795   -3.0567 H         1 <0>         0.0321
     77 H34        -3.6169   -0.7550   -2.0576 H         1 <0>         0.0204
     78 H35         2.8203   -2.5449    3.6159 H         1 <0>         0.0749
     79 H36         6.8043   -0.9763    4.4032 H         1 <0>         0.0719
     80 H37         1.7968   -0.7138    6.8816 H         1 <0>         0.0609
     81 H38        -2.1562   -0.1031   -0.1797 H         1 <0>         0.1063
     82 H39         0.7836    4.9313    2.9267 H         1 <0>         0.4792
     83 H40        -0.1744    4.6567    4.3479 H         1 <0>         0.4819
     84 H41        -2.4446    2.2546    2.8530 H         1 <0>         0.4802
     85 H42        -2.0394    3.1134    4.3112 H         1 <0>         0.4826
     86 H43         0.1607   -0.8193   -1.9192 H         1 <0>         0.3101
     87 H44         4.4349   -0.1495    4.1364 H         1 <0>         0.3087
     88 H45         0.2413    3.7522    0.8785 H         1 <0>         0.4846
     89 H46        13.0145    0.3720    4.5255 H         1 <0>         0.4194
     90 H47         2.7873   -5.4145    2.8873 H         1 <0>         0.4036
     91 H48        -1.7464   -2.8287   -1.7250 H         1 <0>         0.4114
     92 H49         7.4057    0.3222    2.2582 H         1 <0>         0.3944
@<TRIPOS>BOND
     1    1    3 ar
     2    1    5 ar
     3    2    4 ar
     4    2    5 ar
     5    3    6 ar
     6    4    6 ar
     7    5   21 1
     8    6   40 1
     9    7   15 1
    10    7   34 am
    11    7   37 2
    12    8   27 1
    13    8   31 am
    14    8   38 2
    15    9   28 1
    16    9   35 am
    17    9   39 2
    18   10   32 1
    19   10   33 1
    20   10   36 1
    21   11   12 1
    22   11   16 1
    23   12   18 1
    24   13   15 1
    25   13   16 1
    26   14   17 1
    27   14   18 1
    28   15   31 1
    29   16   17 1
    30   17   31 1
    31   18   41 1
    32   19   29 1
    33   20   29 1
    34   21   28 1
    35   22   23 1
    36   22   25 1
    37   23   30 1
    38   24   27 1
    39   24   29 1
    40   25   36 1
    41   26   30 1
    42   26   42 1
    43   27   35 1
    44   28   43 1
    45   30   34 1
    46    1   44 1
    47    2   45 1
    48    3   46 1
    49    4   47 1
    50   11   48 1
    51   11   49 1
    52   12   50 1
    53   12   51 1
    54   13   52 1
    55   13   53 1
    56   14   54 1
    57   14   55 1
    58   15   56 1
    59   16   57 1
    60   17   58 1
    61   18   59 1
    62   19   60 1
    63   19   61 1
    64   19   62 1
    65   20   63 1
    66   20   64 1
    67   20   65 1
    68   21   66 1
    69   21   67 1
    70   22   68 1
    71   22   69 1
    72   23   70 1
    73   23   71 1
    74   24   72 1
    75   24   73 1
    76   25   74 1
    77   25   75 1
    78   26   76 1
    79   26   77 1
    80   27   78 1
    81   28   79 1
    82   29   80 1
    83   30   81 1
    84   32   82 1
    85   32   83 1
    86   33   84 1
    87   33   85 1
    88   34   86 1
    89   35   87 1
    90   36   88 1
    91   40   89 1
    92   41   90 1
    93   42   91 1
    94   43   92 1
@<TRIPOS>MOLECULE
1a2c_ligand_119
   92    94     0     0     0
SMALL
USER_CHARGES

mmff94s_NoEstat = 111.27
@<TRIPOS>ATOM
      1 C1          8.3103   -1.0475    6.6490 C.ar      1 <0>        -0.0708
      2 C2          6.7594   -2.8998    6.6321 C.ar      1 <0>        -0.0872
      3 C3          8.2150   -0.9804    8.0390 C.ar      1 <0>        -0.2241
      4 C4          6.6640   -2.8328    8.0220 C.ar      1 <0>        -0.1600
      5 C5          7.5813   -2.0063    5.9642 C.ar      1 <0>        -0.1356
      6 C6          7.3919   -1.8731    8.7255 C.ar      1 <0>         0.1290
      7 C7          0.1755   -1.0766    0.1327 C.2       1 <0>         0.6664
      8 C8          2.3785   -0.9757    2.2764 C.2       1 <0>         0.6651
      9 C9          5.2968   -1.9145    3.7000 C.2       1 <0>         0.6454
     10 C10        -3.7293    1.9922    2.7781 C.cat     1 <0>         0.6349
     11 C11         2.4521   -5.3069   -0.2561 C.3       1 <0>        -0.0642
     12 C12         1.2413   -5.9691    0.3982 C.3       1 <0>        -0.0747
     13 C13         1.5734   -2.9393   -0.7647 C.3       1 <0>        -0.0873
     14 C14         1.0938   -4.1277    2.1072 C.3       1 <0>        -0.1371
     15 C15         1.5650   -1.6216    0.0133 C.3       1 <0>         0.0360
     16 C16         2.5597   -3.8106    0.0203 C.3       1 <0>        -0.0720
     17 C17         2.2934   -3.4012    1.4755 C.3       1 <0>         0.1201
     18 C18         1.1411   -5.6363    1.8853 C.3       1 <0>         0.1453
     19 C19         3.8896   -0.8379    6.4377 C.3       1 <0>        -0.0968
     20 C20         2.2599   -2.7349    6.3694 C.3       1 <0>        -0.0986
     21 C21         7.6850   -2.0794    4.4595 C.3       1 <0>        -0.0191
     22 C22        -0.6430    2.4326    0.6399 C.3       1 <0>        -0.1009
     23 C23        -1.2979    2.0260   -0.6854 C.3       1 <0>        -0.0942
     24 C24         1.9925   -0.8489    4.7298 C.3       1 <0>        -0.0988
     25 C25        -1.4152    1.8692    1.8307 C.3       1 <0>         0.1966
     26 C26        -2.1127    0.1273   -2.2253 C.3       1 <0>         0.1128
     27 C27         2.8496   -1.4560    3.6253 C.3       1 <0>         0.0786
     28 C28         6.6400   -1.1984    3.7670 C.3       1 <0>         0.0744
     29 C29         2.4383   -1.2292    6.1562 C.3       1 <0>        -0.0678
     30 C30        -1.4370    0.5062   -0.9051 C.3       1 <0>         0.1065
     31 N1          2.0322   -1.9586    1.3590 N.am      1 <0>        -0.4315
     32 N2         -5.0265    2.4916    2.7256 N.pl3     1 <0>        -0.8671
     33 N3         -3.3809    1.1166    3.8008 N.pl3     1 <0>        -0.8581
     34 N4         -0.1481   -0.1440   -0.8342 N.am      1 <0>        -0.5687
     35 N5          4.2184   -1.0331    3.6724 N.am      1 <0>        -0.5746
     36 N6         -2.7729    2.3596    1.8159 N.pl3     1 <0>        -0.7533
     37 O1         -0.5534   -1.4727    1.0347 O.2       1 <0>        -0.5843
     38 O2          2.3230    0.2335    2.0409 O.2       1 <0>        -0.6812
     39 O3          5.2019   -3.1398    3.6875 O.2       1 <0>        -0.5788
     40 O4          7.3001   -1.8086   10.0820 O.3       1 <0>        -0.4938
     41 O5          2.2611   -6.1715    2.5852 O.3       1 <0>        -0.6030
     42 O6         -2.2112   -1.2870   -2.3289 O.3       1 <0>        -0.5860
     43 O7          7.0680   -0.9312    2.4393 O.3       1 <0>        -0.6021
     44 H1          8.9541   -0.3478    6.1229 H         1 <0>         0.1412
     45 H2          6.1888   -3.6511    6.0922 H         1 <0>         0.1451
     46 H3          8.7845   -0.2308    8.5812 H         1 <0>         0.1336
     47 H4          6.0217   -3.5316    8.5514 H         1 <0>         0.1567
     48 H5          3.3605   -5.7937    0.1218 H         1 <0>         0.0649
     49 H6          2.4319   -5.4897   -1.3370 H         1 <0>         0.0476
     50 H7          0.3241   -5.6545   -0.1129 H         1 <0>         0.0641
     51 H8          1.3294   -7.0545    0.2691 H         1 <0>         0.0484
     52 H9          0.5754   -3.3919   -0.8000 H         1 <0>         0.0596
     53 H10         1.8977   -2.7914   -1.8003 H         1 <0>         0.0757
     54 H11         1.0807   -3.9085    3.1823 H         1 <0>         0.0782
     55 H12         0.1523   -3.7376    1.7002 H         1 <0>         0.0812
     56 H13         2.2202   -0.8626   -0.4249 H         1 <0>         0.0731
     57 H14         3.5726   -3.4842   -0.2571 H         1 <0>         0.0511
     58 H15         3.1875   -3.5701    2.0864 H         1 <0>         0.0753
     59 H16         0.2435   -6.1003    2.3075 H         1 <0>         0.0427
     60 H17         4.2001   -1.1859    7.4289 H         1 <0>         0.0450
     61 H18         4.0203    0.2482    6.4220 H         1 <0>         0.0406
     62 H19         4.5693   -1.2752    5.6986 H         1 <0>         0.0274
     63 H20         2.8852   -3.3113    5.6789 H         1 <0>         0.0476
     64 H21         2.5335   -3.0185    7.3913 H         1 <0>         0.0170
     65 H22         1.2173   -3.0301    6.2104 H         1 <0>         0.0477
     66 H23         7.5676   -3.1238    4.1408 H         1 <0>         0.0814
     67 H24         8.7032   -1.7908    4.1693 H         1 <0>         0.0685
     68 H25         0.3900    2.0675    0.6783 H         1 <0>         0.1016
     69 H26        -0.5969    3.5252    0.7212 H         1 <0>         0.0660
     70 H27        -0.7150    2.4492   -1.5148 H         1 <0>         0.0512
     71 H28        -2.2909    2.4892   -0.7497 H         1 <0>         0.0454
     72 H29         0.9469   -1.1516    4.5828 H         1 <0>         0.0575
     73 H30         2.0032    0.2464    4.6399 H         1 <0>         0.0743
     74 H31        -0.9365    2.1672    2.7695 H         1 <0>         0.0662
     75 H32        -1.4303    0.7749    1.7956 H         1 <0>         0.0622
     76 H33        -1.5587    0.5035   -3.0917 H         1 <0>         0.0321
     77 H34        -3.1279    0.5382   -2.2680 H         1 <0>         0.0204
     78 H35         2.8203   -2.5449    3.6159 H         1 <0>         0.0749
     79 H36         6.5115   -0.2411    4.2859 H         1 <0>         0.0719
     80 H37         1.7968   -0.7138    6.8816 H         1 <0>         0.0609
     81 H38        -2.0581    0.1260   -0.0837 H         1 <0>         0.1063
     82 H39        -5.3256    3.1354    1.9980 H         1 <0>         0.4792
     83 H40        -5.7176    2.2253    3.4232 H         1 <0>         0.4819
     84 H41        -2.4415    0.7328    3.8691 H         1 <0>         0.4802
     85 H42        -4.0571    0.8362    4.5071 H         1 <0>         0.4826
     86 H43         0.5534    0.0962   -1.5282 H         1 <0>         0.3101
     87 H44         4.4137   -0.0309    3.6864 H         1 <0>         0.3087
     88 H45        -3.0838    3.0087    1.0829 H         1 <0>         0.4846
     89 H46         7.3998   -0.8913   10.3827 H         1 <0>         0.4194
     90 H47         2.7873   -5.4145    2.8873 H         1 <0>         0.4036
     91 H48        -1.3448   -1.6067   -2.6281 H         1 <0>         0.4114
     92 H49         8.0124   -1.1538    2.3984 H         1 <0>         0.3944
@<TRIPOS>BOND
     1    1    3 ar
     2    1    5 ar
     3    2    4 ar
     4    2    5 ar
     5    3    6 ar
     6    4    6 ar
     7    5   21 1
     8    6   40 1
     9    7   15 1
    10    7   34 am
    11    7   37 2
    12    8   27 1
    13    8   31 am
    14    8   38 2
    15    9   28 1
    16    9   35 am
    17    9   39 2
    18   10   32 1
    19   10   33 1
    20   10   36 1
    21   11   12 1
    22   11   16 1
    23   12   18 1
    24   13   15 1
    25   13   16 1
    26   14   17 1
    27   14   18 1
    28   15   31 1
    29   16   17 1
    30   17   31 1
    31   18   41 1
    32   19   29 1
    33   20   29 1
    34   21   28 1
    35   22   23 1
    36   22   25 1
    37   23   30 1
    38   24   27 1
    39   24   29 1
    40   25   36 1
    41   26   30 1
    42   26   42 1
    43   27   35 1
    44   28   43 1
    45   30   34 1
    46    1   44 1
    47    2   45 1
    48    3   46 1
    49    4   47 1
    50   11   48 1
    51   11   49 1
    52   12   50 1
    53   12   51 1
    54   13   52 1
    55   13   53 1
    56   14   54 1
    57   14   55 1
    58   15   56 1
    59   16   57 1
    60   17   58 1
    61   18   59 1
    62   19   60 1
    63   19   61 1
    64   19   62 1
    65   20   63 1
    66   20   64 1
    67   20   65 1
    68   21   66 1
    69   21   67 1
    70   22   68 1
    71   22   69 1
    72   23   70 1
    73   23   71 1
    74   24   72 1
    75   24   73 1
    76   25   74 1
    77   25   75 1
    78   26   76 1
    79   26   77 1
    80   27   78 1
    81   28   79 1
    82   29   80 1
    83   30   81 1
    84   32   82 1
    85   32   83 1
    86   33   84 1
    87   33   85 1
    88   34   86 1
    89   35   87 1
    90   36   88 1
    91   40   89 1
    92   41   90 1
    93   42   91 1
    94   43   92 1
@<TRIPOS>MOLECULE
1a2c_ligand_120
   92    94     0     0     0
SMALL
USER_CHARGES

mmff94s_NoEstat = 111.31
@<TRIPOS>ATOM
      1 C1         -8.4286   -3.4392   -2.9028 C.ar      1 <0>        -0.0708
      2 C2         -6.6126   -4.0964   -4.3544 C.ar      1 <0>        -0.0872
      3 C3         -9.3452   -3.7607   -3.9040 C.ar      1 <0>        -0.2241
      4 C4         -7.5291   -4.4179   -5.3555 C.ar      1 <0>        -0.1600
      5 C5         -7.0747   -3.6114   -3.1414 C.ar      1 <0>        -0.1356
      6 C6         -8.8954   -4.2501   -5.1304 C.ar      1 <0>         0.1290
      7 C7         -0.1674   -1.0853   -0.0424 C.2       1 <0>         0.6664
      8 C8         -2.5997   -3.1326    0.7250 C.2       1 <0>         0.6651
      9 C9         -4.3299   -1.6044   -1.3634 C.2       1 <0>         0.6454
     10 C10        -4.0575    1.1608   -2.9723 C.cat     1 <0>         0.6349
     11 C11         2.0445   -3.7524    0.2047 C.3       1 <0>        -0.0642
     12 C12         2.1951   -5.1517   -0.3975 C.3       1 <0>        -0.0747
     13 C13         0.7864   -2.3272    1.9103 C.3       1 <0>        -0.0873
     14 C14        -0.3466   -4.9962   -0.4055 C.3       1 <0>        -0.1371
     15 C15        -0.4770   -1.8334    1.2187 C.3       1 <0>         0.0360
     16 C16         1.0305   -3.7327    1.3503 C.3       1 <0>        -0.0720
     17 C17        -0.3661   -4.2312    0.9284 C.3       1 <0>         0.1201
     18 C18         0.8694   -5.9135   -0.5141 C.3       1 <0>         0.1453
     19 C19        -5.9631   -0.4404    1.7581 C.3       1 <0>        -0.0968
     20 C20        -3.8887    0.7550    2.4841 C.3       1 <0>        -0.0986
     21 C21        -6.0825   -3.2640   -2.0573 C.3       1 <0>        -0.0191
     22 C22        -1.2290    2.3228   -0.7494 C.3       1 <0>        -0.1009
     23 C23         0.3037    2.3337   -0.7876 C.3       1 <0>        -0.0942
     24 C24        -3.8619   -1.7555    2.3678 C.3       1 <0>        -0.0988
     25 C25        -1.8057    1.6659   -2.0016 C.3       1 <0>         0.1966
     26 C26         2.4918    0.9866   -0.9811 C.3       1 <0>         0.1128
     27 C27        -3.3800   -1.8574    0.9254 C.3       1 <0>         0.0786
     28 C28        -5.6231   -1.8048   -2.1437 C.3       1 <0>         0.0744
     29 C29        -4.7285   -0.5135    2.6578 C.3       1 <0>        -0.0678
     30 C30         0.9627    0.9465   -0.9241 C.3       1 <0>         0.1065
     31 N1         -1.2224   -3.0398    0.8850 N.am      1 <0>        -0.4315
     32 N2         -5.4447    1.1909   -2.8745 N.pl3     1 <0>        -0.8671
     33 N3         -3.4697    0.6099   -4.1058 N.pl3     1 <0>        -0.8581
     34 N4          0.5562    0.0753    0.1551 N.am      1 <0>        -0.5687
     35 N5         -4.4491   -1.9660   -0.0233 N.am      1 <0>        -0.5746
     36 N6         -3.2482    1.6772   -1.9456 N.pl3     1 <0>        -0.7533
     37 O1         -0.5544   -1.5275   -1.1177 O.2       1 <0>        -0.5843
     38 O2         -3.1933   -4.1752    0.4418 O.2       1 <0>        -0.6812
     39 O3         -3.3092   -1.1565   -1.8810 O.2       1 <0>        -0.5788
     40 O4         -9.7898   -4.5653   -6.1067 O.3       1 <0>        -0.4938
     41 O5          0.7872   -6.8901    0.5248 O.3       1 <0>        -0.6030
     42 O6          3.0045   -0.3315   -1.1244 O.3       1 <0>        -0.5860
     43 O7         -6.6213   -0.9719   -1.5714 O.3       1 <0>        -0.6021
     44 H1         -8.7885   -3.0585   -1.9509 H         1 <0>         0.1412
     45 H2         -5.5498   -4.2307   -4.5386 H         1 <0>         0.1451
     46 H3        -10.4080   -3.6279   -3.7225 H         1 <0>         0.1336
     47 H4         -7.1725   -4.7996   -6.3086 H         1 <0>         0.1567
     48 H5          3.0220   -3.4003    0.5555 H         1 <0>         0.0649
     49 H6          1.7363   -3.0584   -0.5866 H         1 <0>         0.0476
     50 H7          2.6388   -5.0399   -1.3944 H         1 <0>         0.0641
     51 H8          2.9088   -5.7297    0.2024 H         1 <0>         0.0484
     52 H9          1.6439   -1.6583    1.7836 H         1 <0>         0.0596
     53 H10         0.5887   -2.4119    2.9867 H         1 <0>         0.0757
     54 H11        -1.2632   -5.5927   -0.4872 H         1 <0>         0.0782
     55 H12        -0.3526   -4.2949   -1.2498 H         1 <0>         0.0812
     56 H13        -1.0651   -1.1731    1.8629 H         1 <0>         0.0731
     57 H14         1.4245   -4.3763    2.1480 H         1 <0>         0.0511
     58 H15        -0.7725   -4.8823    1.7135 H         1 <0>         0.0753
     59 H16         0.8433   -6.4624   -1.4612 H         1 <0>         0.0427
     60 H17        -6.5181    0.4873    1.9352 H         1 <0>         0.0450
     61 H18        -6.6497   -1.2692    1.9547 H         1 <0>         0.0406
     62 H19        -5.6850   -0.4702    0.6992 H         1 <0>         0.0274
     63 H20        -3.5277    0.8553    1.4548 H         1 <0>         0.0476
     64 H21        -4.4764    1.6472    2.7254 H         1 <0>         0.0170
     65 H22        -3.0188    0.7404    3.1493 H         1 <0>         0.0477
     66 H23        -5.2172   -3.9361   -2.1324 H         1 <0>         0.0814
     67 H24        -6.5443   -3.4784   -1.0853 H         1 <0>         0.0685
     68 H25        -1.5809    1.7783    0.1345 H         1 <0>         0.1016
     69 H26        -1.6141    3.3462   -0.6663 H         1 <0>         0.0660
     70 H27         0.6789    2.8127    0.1271 H         1 <0>         0.0512
     71 H28         0.6355    2.9707   -1.6175 H         1 <0>         0.0454
     72 H29        -2.9928   -1.7573    3.0396 H         1 <0>         0.0575
     73 H30        -4.4407   -2.6540    2.6237 H         1 <0>         0.0743
     74 H31        -1.4580    0.6305   -2.0820 H         1 <0>         0.0662
     75 H32        -1.4790    2.1993   -2.9001 H         1 <0>         0.0622
     76 H33         2.9238    1.4335   -0.0796 H         1 <0>         0.0321
     77 H34         2.8279    1.5728   -1.8441 H         1 <0>         0.0204
     78 H35        -2.7366   -1.0282    0.6336 H         1 <0>         0.0749
     79 H36        -5.4683   -1.4913   -3.1829 H         1 <0>         0.0719
     80 H37        -5.0656   -0.5471    3.7011 H         1 <0>         0.0609
     81 H38         0.5984    0.5173   -1.8665 H         1 <0>         0.1063
     82 H39        -5.9181    1.5818   -2.0642 H         1 <0>         0.4792
     83 H40        -6.0292    0.8162   -3.6181 H         1 <0>         0.4819
     84 H41        -2.4586    0.5717   -4.2098 H         1 <0>         0.4802
     85 H42        -4.0358    0.2315   -4.8615 H         1 <0>         0.4826
     86 H43         0.8147    0.3282    1.1041 H         1 <0>         0.3101
     87 H44        -5.3471   -2.3283    0.3008 H         1 <0>         0.3087
     88 H45        -3.7344    2.0721   -1.1314 H         1 <0>         0.4846
     89 H46       -10.5620   -3.9795   -6.0573 H         1 <0>         0.4194
     90 H47         1.3049   -6.5470    1.2701 H         1 <0>         0.4036
     91 H48         3.0027   -0.7302   -0.2393 H         1 <0>         0.4114
     92 H49        -7.4309   -1.5047   -1.5105 H         1 <0>         0.3944
@<TRIPOS>BOND
     1    1    3 ar
     2    1    5 ar
     3    2    4 ar
     4    2    5 ar
     5    3    6 ar
     6    4    6 ar
     7    5   21 1
     8    6   40 1
     9    7   15 1
    10    7   34 am
    11    7   37 2
    12    8   27 1
    13    8   31 am
    14    8   38 2
    15    9   28 1
    16    9   35 am
    17    9   39 2
    18   10   32 1
    19   10   33 1
    20   10   36 1
    21   11   12 1
    22   11   16 1
    23   12   18 1
    24   13   15 1
    25   13   16 1
    26   14   17 1
    27   14   18 1
    28   15   31 1
    29   16   17 1
    30   17   31 1
    31   18   41 1
    32   19   29 1
    33   20   29 1
    34   21   28 1
    35   22   23 1
    36   22   25 1
    37   23   30 1
    38   24   27 1
    39   24   29 1
    40   25   36 1
    41   26   30 1
    42   26   42 1
    43   27   35 1
    44   28   43 1
    45   30   34 1
    46    1   44 1
    47    2   45 1
    48    3   46 1
    49    4   47 1
    50   11   48 1
    51   11   49 1
    52   12   50 1
    53   12   51 1
    54   13   52 1
    55   13   53 1
    56   14   54 1
    57   14   55 1
    58   15   56 1
    59   16   57 1
    60   17   58 1
    61   18   59 1
    62   19   60 1
    63   19   61 1
    64   19   62 1
    65   20   63 1
    66   20   64 1
    67   20   65 1
    68   21   66 1
    69   21   67 1
    70   22   68 1
    71   22   69 1
    72   23   70 1
    73   23   71 1
    74   24   72 1
    75   24   73 1
    76   25   74 1
    77   25   75 1
    78   26   76 1
    79   26   77 1
    80   27   78 1
    81   28   79 1
    82   29   80 1
    83   30   81 1
    84   32   82 1
    85   32   83 1
    86   33   84 1
    87   33   85 1
    88   34   86 1
    89   35   87 1
    90   36   88 1
    91   40   89 1
    92   41   90 1
    93   42   91 1
    94   43   92 1
@<TRIPOS>MOLECULE
1a2c_ligand_121
   92    94     0     0     0
SMALL
USER_CHARGES

mmff94s_NoEstat = 111.32
@<TRIPOS>ATOM
      1 C1          9.6781   -0.8835    4.6459 C.ar      1 <0>        -0.0708
      2 C2          8.0683    0.3374    5.9707 C.ar      1 <0>        -0.0872
      3 C3         10.6899   -0.0331    5.0917 C.ar      1 <0>        -0.2241
      4 C4          9.0801    1.1878    6.4165 C.ar      1 <0>        -0.1600
      5 C5          8.3809   -0.6869    5.0914 C.ar      1 <0>        -0.1356
      6 C6         10.3909    1.0026    5.9770 C.ar      1 <0>         0.1290
      7 C7          0.1755   -1.0766    0.1327 C.2       1 <0>         0.6664
      8 C8          2.3785   -0.9757    2.2764 C.2       1 <0>         0.6651
      9 C9          5.2695   -1.7615    3.1198 C.2       1 <0>         0.6454
     10 C10        -0.2916    5.1768   -3.5001 C.cat     1 <0>         0.6349
     11 C11         2.4521   -5.3069   -0.2561 C.3       1 <0>        -0.0642
     12 C12         1.2413   -5.9691    0.3982 C.3       1 <0>        -0.0747
     13 C13         1.5734   -2.9393   -0.7647 C.3       1 <0>        -0.0873
     14 C14         1.0938   -4.1277    2.1072 C.3       1 <0>        -0.1371
     15 C15         1.5650   -1.6216    0.0133 C.3       1 <0>         0.0360
     16 C16         2.5597   -3.8106    0.0203 C.3       1 <0>        -0.0720
     17 C17         2.2934   -3.4012    1.4755 C.3       1 <0>         0.1201
     18 C18         1.1411   -5.6363    1.8853 C.3       1 <0>         0.1453
     19 C19         3.8896   -0.8379    6.4377 C.3       1 <0>        -0.0968
     20 C20         2.2599   -2.7349    6.3694 C.3       1 <0>        -0.0986
     21 C21         7.2857   -1.6080    4.6093 C.3       1 <0>        -0.0191
     22 C22        -0.3644    2.8488   -0.6052 C.3       1 <0>        -0.1009
     23 C23        -1.2954    1.9500   -1.4274 C.3       1 <0>        -0.0942
     24 C24         1.9925   -0.8489    4.7298 C.3       1 <0>        -0.0988
     25 C25        -0.3322    4.2683   -1.1675 C.3       1 <0>         0.1966
     26 C26        -2.3878   -0.3640   -1.7308 C.3       1 <0>         0.1128
     27 C27         2.8496   -1.4560    3.6253 C.3       1 <0>         0.0786
     28 C28         6.6222   -1.0920    3.3282 C.3       1 <0>         0.0744
     29 C29         2.4383   -1.2292    6.1562 C.3       1 <0>        -0.0678
     30 C30        -1.4370    0.5062   -0.9051 C.3       1 <0>         0.1065
     31 N1          2.0322   -1.9586    1.3590 N.am      1 <0>        -0.4315
     32 N2          0.1847    5.1202   -4.8057 N.pl3     1 <0>        -0.8671
     33 N3         -1.2007    6.1701   -3.1525 N.pl3     1 <0>        -0.8581
     34 N4         -0.1481   -0.1440   -0.8342 N.am      1 <0>        -0.5687
     35 N5          4.2184   -1.0331    3.6724 N.am      1 <0>        -0.5746
     36 N6          0.1324    4.2478   -2.5342 N.pl3     1 <0>        -0.7533
     37 O1         -0.5534   -1.4727    1.0347 O.2       1 <0>        -0.5843
     38 O2          2.3230    0.2335    2.0409 O.2       1 <0>        -0.6812
     39 O3          5.1476   -2.8360    2.5359 O.2       1 <0>        -0.5788
     40 O4         11.3785    1.8314    6.4133 O.3       1 <0>        -0.4938
     41 O5          2.2611   -6.1715    2.5852 O.3       1 <0>        -0.6030
     42 O6         -1.9117   -0.4666   -3.0663 O.3       1 <0>        -0.5860
     43 O7          7.4509   -1.4094    2.2191 O.3       1 <0>        -0.6021
     44 H1          9.9207   -1.6873    3.9562 H         1 <0>         0.1412
     45 H2          7.0498    0.4890    6.3187 H         1 <0>         0.1451
     46 H3         11.7089   -0.1826    4.7459 H         1 <0>         0.1336
     47 H4          8.8410    1.9923    7.1070 H         1 <0>         0.1567
     48 H5          3.3605   -5.7937    0.1218 H         1 <0>         0.0649
     49 H6          2.4319   -5.4897   -1.3370 H         1 <0>         0.0476
     50 H7          0.3241   -5.6545   -0.1129 H         1 <0>         0.0641
     51 H8          1.3294   -7.0545    0.2691 H         1 <0>         0.0484
     52 H9          0.5754   -3.3919   -0.8000 H         1 <0>         0.0596
     53 H10         1.8977   -2.7914   -1.8003 H         1 <0>         0.0757
     54 H11         1.0807   -3.9085    3.1823 H         1 <0>         0.0782
     55 H12         0.1523   -3.7376    1.7002 H         1 <0>         0.0812
     56 H13         2.2202   -0.8626   -0.4249 H         1 <0>         0.0731
     57 H14         3.5726   -3.4842   -0.2571 H         1 <0>         0.0511
     58 H15         3.1875   -3.5701    2.0864 H         1 <0>         0.0753
     59 H16         0.2435   -6.1003    2.3075 H         1 <0>         0.0427
     60 H17         4.2001   -1.1859    7.4289 H         1 <0>         0.0450
     61 H18         4.0203    0.2482    6.4220 H         1 <0>         0.0406
     62 H19         4.5693   -1.2752    5.6986 H         1 <0>         0.0274
     63 H20         2.8852   -3.3113    5.6789 H         1 <0>         0.0476
     64 H21         2.5335   -3.0185    7.3913 H         1 <0>         0.0170
     65 H22         1.2173   -3.0301    6.2104 H         1 <0>         0.0477
     66 H23         6.5349   -1.7208    5.4029 H         1 <0>         0.0814
     67 H24         7.7154   -2.6065    4.4600 H         1 <0>         0.0685
     68 H25        -0.6988    2.8850    0.4382 H         1 <0>         0.1016
     69 H26         0.6522    2.4378   -0.5989 H         1 <0>         0.0660
     70 H27        -0.9322    1.9150   -2.4635 H         1 <0>         0.0512
     71 H28        -2.2895    2.4130   -1.4734 H         1 <0>         0.0454
     72 H29         0.9469   -1.1516    4.5828 H         1 <0>         0.0575
     73 H30         2.0032    0.2464    4.6399 H         1 <0>         0.0743
     74 H31         0.3360    4.8982   -0.5709 H         1 <0>         0.0662
     75 H32        -1.3308    4.7163   -1.1364 H         1 <0>         0.0622
     76 H33        -3.4032    0.0453   -1.7522 H         1 <0>         0.0321
     77 H34        -2.4395   -1.3766   -1.3144 H         1 <0>         0.0204
     78 H35         2.8203   -2.5449    3.6159 H         1 <0>         0.0749
     79 H36         6.4849   -0.0045    3.3546 H         1 <0>         0.0719
     80 H37         1.7968   -0.7138    6.8816 H         1 <0>         0.0609
     81 H38        -1.8404    0.5790    0.1132 H         1 <0>         0.1063
     82 H39         0.8513    4.4134   -5.1046 H         1 <0>         0.4792
     83 H40        -0.1226    5.7937   -5.5036 H         1 <0>         0.4819
     84 H41        -1.5690    6.2404   -2.2070 H         1 <0>         0.4802
     85 H42        -1.5222    6.8520   -3.8354 H         1 <0>         0.4826
     86 H43         0.5534    0.0962   -1.5282 H         1 <0>         0.3101
     87 H44         4.4349   -0.1495    4.1364 H         1 <0>         0.3087
     88 H45         0.8044    3.5357   -2.8448 H         1 <0>         0.4846
     89 H46        12.0516    1.9448    5.7234 H         1 <0>         0.4194
     90 H47         2.7873   -5.4145    2.8873 H         1 <0>         0.4036
     91 H48        -2.1844    0.3451   -3.5237 H         1 <0>         0.4114
     92 H49         8.3251   -1.6348    2.5769 H         1 <0>         0.3944
@<TRIPOS>BOND
     1    1    3 ar
     2    1    5 ar
     3    2    4 ar
     4    2    5 ar
     5    3    6 ar
     6    4    6 ar
     7    5   21 1
     8    6   40 1
     9    7   15 1
    10    7   34 am
    11    7   37 2
    12    8   27 1
    13    8   31 am
    14    8   38 2
    15    9   28 1
    16    9   35 am
    17    9   39 2
    18   10   32 1
    19   10   33 1
    20   10   36 1
    21   11   12 1
    22   11   16 1
    23   12   18 1
    24   13   15 1
    25   13   16 1
    26   14   17 1
    27   14   18 1
    28   15   31 1
    29   16   17 1
    30   17   31 1
    31   18   41 1
    32   19   29 1
    33   20   29 1
    34   21   28 1
    35   22   23 1
    36   22   25 1
    37   23   30 1
    38   24   27 1
    39   24   29 1
    40   25   36 1
    41   26   30 1
    42   26   42 1
    43   27   35 1
    44   28   43 1
    45   30   34 1
    46    1   44 1
    47    2   45 1
    48    3   46 1
    49    4   47 1
    50   11   48 1
    51   11   49 1
    52   12   50 1
    53   12   51 1
    54   13   52 1
    55   13   53 1
    56   14   54 1
    57   14   55 1
    58   15   56 1
    59   16   57 1
    60   17   58 1
    61   18   59 1
    62   19   60 1
    63   19   61 1
    64   19   62 1
    65   20   63 1
    66   20   64 1
    67   20   65 1
    68   21   66 1
    69   21   67 1
    70   22   68 1
    71   22   69 1
    72   23   70 1
    73   23   71 1
    74   24   72 1
    75   24   73 1
    76   25   74 1
    77   25   75 1
    78   26   76 1
    79   26   77 1
    80   27   78 1
    81   28   79 1
    82   29   80 1
    83   30   81 1
    84   32   82 1
    85   32   83 1
    86   33   84 1
    87   33   85 1
    88   34   86 1
    89   35   87 1
    90   36   88 1
    91   40   89 1
    92   41   90 1
    93   42   91 1
    94   43   92 1
@<TRIPOS>MOLECULE
1a2c_ligand_122
   92    94     0     0     0
SMALL
USER_CHARGES

mmff94s_NoEstat = 111.33
@<TRIPOS>ATOM
      1 C1          8.6458    1.5507    3.5275 C.ar      1 <0>        -0.0708
      2 C2          8.6534    0.6081    1.3030 C.ar      1 <0>        -0.0872
      3 C3          9.9381    2.0357    3.3263 C.ar      1 <0>        -0.2241
      4 C4          9.9457    1.0931    1.1018 C.ar      1 <0>        -0.1600
      5 C5          8.0208    0.8434    2.5131 C.ar      1 <0>        -0.1356
      6 C6         10.5880    1.8070    2.1135 C.ar      1 <0>         0.1290
      7 C7          0.1755   -1.0766    0.1327 C.2       1 <0>         0.6664
      8 C8          2.3785   -0.9757    2.2764 C.2       1 <0>         0.6651
      9 C9          5.2695   -1.7615    3.1198 C.2       1 <0>         0.6454
     10 C10         0.3443    5.9186   -0.4394 C.cat     1 <0>         0.6349
     11 C11         2.4521   -5.3069   -0.2561 C.3       1 <0>        -0.0642
     12 C12         1.2413   -5.9691    0.3982 C.3       1 <0>        -0.0747
     13 C13         1.5734   -2.9393   -0.7647 C.3       1 <0>        -0.0873
     14 C14         1.0938   -4.1277    2.1072 C.3       1 <0>        -0.1371
     15 C15         1.5650   -1.6216    0.0133 C.3       1 <0>         0.0360
     16 C16         2.5597   -3.8106    0.0203 C.3       1 <0>        -0.0720
     17 C17         2.2934   -3.4012    1.4755 C.3       1 <0>         0.1201
     18 C18         1.1411   -5.6363    1.8853 C.3       1 <0>         0.1453
     19 C19         3.8896   -0.8379    6.4377 C.3       1 <0>        -0.0968
     20 C20         2.2599   -2.7349    6.3694 C.3       1 <0>        -0.0986
     21 C21         6.6216    0.3189    2.7306 C.3       1 <0>        -0.0191
     22 C22        -0.6430    2.4326    0.6399 C.3       1 <0>        -0.1009
     23 C23        -1.2979    2.0260   -0.6854 C.3       1 <0>        -0.0942
     24 C24         1.9925   -0.8489    4.7298 C.3       1 <0>        -0.0988
     25 C25        -0.5996    3.9518    0.7888 C.3       1 <0>         0.1966
     26 C26        -2.1127    0.1273   -2.2253 C.3       1 <0>         0.1128
     27 C27         2.8496   -1.4560    3.6253 C.3       1 <0>         0.0786
     28 C28         6.6222   -1.0920    3.3282 C.3       1 <0>         0.0744
     29 C29         2.4383   -1.2292    6.1562 C.3       1 <0>        -0.0678
     30 C30        -1.4370    0.5062   -0.9051 C.3       1 <0>         0.1065
     31 N1          2.0322   -1.9586    1.3590 N.am      1 <0>        -0.4315
     32 N2          1.0795    6.4347   -1.5015 N.pl3     1 <0>        -0.8671
     33 N3         -0.2072    6.7924    0.4913 N.pl3     1 <0>        -0.8581
     34 N4         -0.1481   -0.1440   -0.8342 N.am      1 <0>        -0.5687
     35 N5          4.2184   -1.0331    3.6724 N.am      1 <0>        -0.5746
     36 N6          0.1533    4.5333   -0.2970 N.pl3     1 <0>        -0.7533
     37 O1         -0.5534   -1.4727    1.0347 O.2       1 <0>        -0.5843
     38 O2          2.3230    0.2335    2.0409 O.2       1 <0>        -0.6812
     39 O3          5.1476   -2.8360    2.5359 O.2       1 <0>        -0.5788
     40 O4         11.8484    2.2817    1.9166 O.3       1 <0>        -0.4938
     41 O5          2.2611   -6.1715    2.5852 O.3       1 <0>        -0.6030
     42 O6         -1.3491    0.6212   -3.3179 O.3       1 <0>        -0.5860
     43 O7          6.8631   -1.0017    4.7250 O.3       1 <0>        -0.6021
     44 H1          8.1477    1.7337    4.4757 H         1 <0>         0.1412
     45 H2          8.1605    0.0531    0.5089 H         1 <0>         0.1451
     46 H3         10.4330    2.5911    4.1181 H         1 <0>         0.1336
     47 H4         10.4465    0.9125    0.1543 H         1 <0>         0.1567
     48 H5          3.3605   -5.7937    0.1218 H         1 <0>         0.0649
     49 H6          2.4319   -5.4897   -1.3370 H         1 <0>         0.0476
     50 H7          0.3241   -5.6545   -0.1129 H         1 <0>         0.0641
     51 H8          1.3294   -7.0545    0.2691 H         1 <0>         0.0484
     52 H9          0.5754   -3.3919   -0.8000 H         1 <0>         0.0596
     53 H10         1.8977   -2.7914   -1.8003 H         1 <0>         0.0757
     54 H11         1.0807   -3.9085    3.1823 H         1 <0>         0.0782
     55 H12         0.1523   -3.7376    1.7002 H         1 <0>         0.0812
     56 H13         2.2202   -0.8626   -0.4249 H         1 <0>         0.0731
     57 H14         3.5726   -3.4842   -0.2571 H         1 <0>         0.0511
     58 H15         3.1875   -3.5701    2.0864 H         1 <0>         0.0753
     59 H16         0.2435   -6.1003    2.3075 H         1 <0>         0.0427
     60 H17         4.2001   -1.1859    7.4289 H         1 <0>         0.0450
     61 H18         4.0203    0.2482    6.4220 H         1 <0>         0.0406
     62 H19         4.5693   -1.2752    5.6986 H         1 <0>         0.0274
     63 H20         2.8852   -3.3113    5.6789 H         1 <0>         0.0476
     64 H21         2.5335   -3.0185    7.3913 H         1 <0>         0.0170
     65 H22         1.2173   -3.0301    6.2104 H         1 <0>         0.0477
     66 H23         6.0831    0.3221    1.7735 H         1 <0>         0.0814
     67 H24         6.0853    1.0243    3.3778 H         1 <0>         0.0685
     68 H25        -1.1995    2.0063    1.4826 H         1 <0>         0.1016
     69 H26         0.3766    2.0329    0.6979 H         1 <0>         0.0660
     70 H27        -0.7150    2.4492   -1.5148 H         1 <0>         0.0512
     71 H28        -2.2909    2.4892   -0.7497 H         1 <0>         0.0454
     72 H29         0.9469   -1.1516    4.5828 H         1 <0>         0.0575
     73 H30         2.0032    0.2464    4.6399 H         1 <0>         0.0743
     74 H31        -0.1297    4.2271    1.7389 H         1 <0>         0.0662
     75 H32        -1.6126    4.3671    0.7838 H         1 <0>         0.0622
     76 H33        -3.1276    0.5322   -2.2969 H         1 <0>         0.0321
     77 H34        -2.1750   -0.9624   -2.3250 H         1 <0>         0.0204
     78 H35         2.8203   -2.5449    3.6159 H         1 <0>         0.0749
     79 H36         7.4053   -1.7180    2.8841 H         1 <0>         0.0719
     80 H37         1.7968   -0.7138    6.8816 H         1 <0>         0.0609
     81 H38        -2.0581    0.1260   -0.0837 H         1 <0>         0.1063
     82 H39         1.5025    5.8345   -2.2044 H         1 <0>         0.4792
     83 H40         1.2174    7.4376   -1.6029 H         1 <0>         0.4819
     84 H41        -0.7502    6.4489    1.2798 H         1 <0>         0.4802
     85 H42        -0.0827    7.7984    0.4073 H         1 <0>         0.4826
     86 H43         0.5534    0.0962   -1.5282 H         1 <0>         0.3101
     87 H44         4.4349   -0.1495    4.1364 H         1 <0>         0.3087
     88 H45         0.5822    3.9340   -1.0126 H         1 <0>         0.4846
     89 H46        12.3411    2.2846    2.7528 H         1 <0>         0.4194
     90 H47         2.7873   -5.4145    2.8873 H         1 <0>         0.4036
     91 H48        -1.5776    1.5595   -3.4176 H         1 <0>         0.4114
     92 H49         7.2149   -0.1122    4.8926 H         1 <0>         0.3944
@<TRIPOS>BOND
     1    1    3 ar
     2    1    5 ar
     3    2    4 ar
     4    2    5 ar
     5    3    6 ar
     6    4    6 ar
     7    5   21 1
     8    6   40 1
     9    7   15 1
    10    7   34 am
    11    7   37 2
    12    8   27 1
    13    8   31 am
    14    8   38 2
    15    9   28 1
    16    9   35 am
    17    9   39 2
    18   10   32 1
    19   10   33 1
    20   10   36 1
    21   11   12 1
    22   11   16 1
    23   12   18 1
    24   13   15 1
    25   13   16 1
    26   14   17 1
    27   14   18 1
    28   15   31 1
    29   16   17 1
    30   17   31 1
    31   18   41 1
    32   19   29 1
    33   20   29 1
    34   21   28 1
    35   22   23 1
    36   22   25 1
    37   23   30 1
    38   24   27 1
    39   24   29 1
    40   25   36 1
    41   26   30 1
    42   26   42 1
    43   27   35 1
    44   28   43 1
    45   30   34 1
    46    1   44 1
    47    2   45 1
    48    3   46 1
    49    4   47 1
    50   11   48 1
    51   11   49 1
    52   12   50 1
    53   12   51 1
    54   13   52 1
    55   13   53 1
    56   14   54 1
    57   14   55 1
    58   15   56 1
    59   16   57 1
    60   17   58 1
    61   18   59 1
    62   19   60 1
    63   19   61 1
    64   19   62 1
    65   20   63 1
    66   20   64 1
    67   20   65 1
    68   21   66 1
    69   21   67 1
    70   22   68 1
    71   22   69 1
    72   23   70 1
    73   23   71 1
    74   24   72 1
    75   24   73 1
    76   25   74 1
    77   25   75 1
    78   26   76 1
    79   26   77 1
    80   27   78 1
    81   28   79 1
    82   29   80 1
    83   30   81 1
    84   32   82 1
    85   32   83 1
    86   33   84 1
    87   33   85 1
    88   34   86 1
    89   35   87 1
    90   36   88 1
    91   40   89 1
    92   41   90 1
    93   42   91 1
    94   43   92 1
@<TRIPOS>MOLECULE
1a2c_ligand_123
   92    94     0     0     0
SMALL
USER_CHARGES

mmff94s_NoEstat = 111.36
@<TRIPOS>ATOM
      1 C1          9.8229   -0.5325    2.5789 C.ar      1 <0>        -0.0708
      2 C2          9.6061   -2.2416    4.2728 C.ar      1 <0>        -0.0872
      3 C3         11.0859   -0.2043    3.0717 C.ar      1 <0>        -0.2241
      4 C4         10.8691   -1.9134    4.7656 C.ar      1 <0>        -0.1600
      5 C5          9.1000   -1.5468    3.1860 C.ar      1 <0>        -0.1356
      6 C6         11.6090   -0.8947    4.1650 C.ar      1 <0>         0.1290
      7 C7          0.1755   -1.0766    0.1327 C.2       1 <0>         0.6664
      8 C8          2.3785   -0.9757    2.2764 C.2       1 <0>         0.6651
      9 C9          5.2695   -1.7615    3.1198 C.2       1 <0>         0.6454
     10 C10        -2.8631    4.0421    0.2667 C.cat     1 <0>         0.6349
     11 C11         2.4521   -5.3069   -0.2561 C.3       1 <0>        -0.0642
     12 C12         1.2413   -5.9691    0.3982 C.3       1 <0>        -0.0747
     13 C13         1.5734   -2.9393   -0.7647 C.3       1 <0>        -0.0873
     14 C14         1.0938   -4.1277    2.1072 C.3       1 <0>        -0.1371
     15 C15         1.5650   -1.6216    0.0133 C.3       1 <0>         0.0360
     16 C16         2.5597   -3.8106    0.0203 C.3       1 <0>        -0.0720
     17 C17         2.2934   -3.4012    1.4755 C.3       1 <0>         0.1201
     18 C18         1.1411   -5.6363    1.8853 C.3       1 <0>         0.1453
     19 C19         3.8896   -0.8379    6.4377 C.3       1 <0>        -0.0968
     20 C20         2.2599   -2.7349    6.3694 C.3       1 <0>        -0.0986
     21 C21         7.7330   -1.9025    2.6521 C.3       1 <0>        -0.0191
     22 C22        -0.8155    2.0502   -2.2095 C.3       1 <0>        -0.1009
     23 C23        -1.7941    0.8762   -2.3301 C.3       1 <0>        -0.0942
     24 C24         1.9925   -0.8489    4.7298 C.3       1 <0>        -0.0988
     25 C25        -1.0238    2.8078   -0.9000 C.3       1 <0>         0.1966
     26 C26        -2.7214   -1.3050   -1.3187 C.3       1 <0>         0.1128
     27 C27         2.8496   -1.4560    3.6253 C.3       1 <0>         0.0786
     28 C28         6.6222   -1.0920    3.3282 C.3       1 <0>         0.0744
     29 C29         2.4383   -1.2292    6.1562 C.3       1 <0>        -0.0678
     30 C30        -1.7203   -0.1547   -1.1858 C.3       1 <0>         0.1065
     31 N1          2.0322   -1.9586    1.3590 N.am      1 <0>        -0.4315
     32 N2         -4.1696    4.5193    0.2852 N.pl3     1 <0>        -0.8671
     33 N3         -2.0366    4.2867    1.3580 N.pl3     1 <0>        -0.8581
     34 N4         -0.3878   -0.7030   -1.0725 N.am      1 <0>        -0.5687
     35 N5          4.2184   -1.0331    3.6724 N.am      1 <0>        -0.5746
     36 N6         -2.3718    3.3203   -0.8349 N.pl3     1 <0>        -0.7533
     37 O1         -0.3509   -1.0007    1.2367 O.2       1 <0>        -0.5843
     38 O2          2.3230    0.2335    2.0409 O.2       1 <0>        -0.6812
     39 O3          5.1476   -2.8360    2.5359 O.2       1 <0>        -0.5788
     40 O4         12.8421   -0.5755    4.6448 O.3       1 <0>        -0.4938
     41 O5          2.2611   -6.1715    2.5852 O.3       1 <0>        -0.6030
     42 O6         -2.4752   -2.0231   -2.5206 O.3       1 <0>        -0.5860
     43 O7          6.5730    0.2013    2.7431 O.3       1 <0>        -0.6021
     44 H1          9.4236    0.0110    1.7269 H         1 <0>         0.1412
     45 H2          9.0369   -3.0369    4.7469 H         1 <0>         0.1451
     46 H3         11.6573    0.5899    2.5995 H         1 <0>         0.1336
     47 H4         11.2717   -2.4556    5.6171 H         1 <0>         0.1567
     48 H5          3.3605   -5.7937    0.1218 H         1 <0>         0.0649
     49 H6          2.4319   -5.4897   -1.3370 H         1 <0>         0.0476
     50 H7          0.3241   -5.6545   -0.1129 H         1 <0>         0.0641
     51 H8          1.3294   -7.0545    0.2691 H         1 <0>         0.0484
     52 H9          0.5754   -3.3919   -0.8000 H         1 <0>         0.0596
     53 H10         1.8977   -2.7914   -1.8003 H         1 <0>         0.0757
     54 H11         1.0807   -3.9085    3.1823 H         1 <0>         0.0782
     55 H12         0.1523   -3.7376    1.7002 H         1 <0>         0.0812
     56 H13         2.2202   -0.8626   -0.4249 H         1 <0>         0.0731
     57 H14         3.5726   -3.4842   -0.2571 H         1 <0>         0.0511
     58 H15         3.1875   -3.5701    2.0864 H         1 <0>         0.0753
     59 H16         0.2435   -6.1003    2.3075 H         1 <0>         0.0427
     60 H17         4.2001   -1.1859    7.4289 H         1 <0>         0.0450
     61 H18         4.0203    0.2482    6.4220 H         1 <0>         0.0406
     62 H19         4.5693   -1.2752    5.6986 H         1 <0>         0.0274
     63 H20         2.8852   -3.3113    5.6789 H         1 <0>         0.0476
     64 H21         2.5335   -3.0185    7.3913 H         1 <0>         0.0170
     65 H22         1.2173   -3.0301    6.2104 H         1 <0>         0.0477
     66 H23         7.5576   -2.9767    2.7987 H         1 <0>         0.0814
     67 H24         7.7350   -1.7453    1.5662 H         1 <0>         0.0685
     68 H25         0.2178    1.6866   -2.2519 H         1 <0>         0.1016
     69 H26        -0.9442    2.7400   -3.0523 H         1 <0>         0.0660
     70 H27        -1.6130    0.3584   -3.2819 H         1 <0>         0.0512
     71 H28        -2.8171    1.2691   -2.3922 H         1 <0>         0.0454
     72 H29         0.9469   -1.1516    4.5828 H         1 <0>         0.0575
     73 H30         2.0032    0.2464    4.6399 H         1 <0>         0.0743
     74 H31        -0.3188    3.6426   -0.8277 H         1 <0>         0.0662
     75 H32        -0.8506    2.1484   -0.0433 H         1 <0>         0.0622
     76 H33        -3.7565   -0.9478   -1.3308 H         1 <0>         0.0321
     77 H34        -2.6144   -2.0048   -0.4820 H         1 <0>         0.0204
     78 H35         2.8203   -2.5449    3.6159 H         1 <0>         0.0749
     79 H36         6.8043   -0.9763    4.4032 H         1 <0>         0.0719
     80 H37         1.7968   -0.7138    6.8816 H         1 <0>         0.0609
     81 H38        -1.9472    0.3883   -0.2591 H         1 <0>         0.1063
     82 H39        -4.8087    4.3663   -0.4903 H         1 <0>         0.4792
     83 H40        -4.5236    5.0421    1.0829 H         1 <0>         0.4819
     84 H41        -1.0762    3.9524    1.3774 H         1 <0>         0.4802
     85 H42        -2.3714    4.8057    2.1662 H         1 <0>         0.4826
     86 H43         0.1607   -0.8193   -1.9192 H         1 <0>         0.3101
     87 H44         4.4349   -0.1495    4.1364 H         1 <0>         0.3087
     88 H45        -3.0246    3.1684   -1.6133 H         1 <0>         0.4846
     89 H46        13.0145    0.3720    4.5255 H         1 <0>         0.4194
     90 H47         2.7873   -5.4145    2.8873 H         1 <0>         0.4036
     91 H48        -2.8906   -1.5183   -3.2383 H         1 <0>         0.4114
     92 H49         7.4057    0.3222    2.2582 H         1 <0>         0.3944
@<TRIPOS>BOND
     1    1    3 ar
     2    1    5 ar
     3    2    4 ar
     4    2    5 ar
     5    3    6 ar
     6    4    6 ar
     7    5   21 1
     8    6   40 1
     9    7   15 1
    10    7   34 am
    11    7   37 2
    12    8   27 1
    13    8   31 am
    14    8   38 2
    15    9   28 1
    16    9   35 am
    17    9   39 2
    18   10   32 1
    19   10   33 1
    20   10   36 1
    21   11   12 1
    22   11   16 1
    23   12   18 1
    24   13   15 1
    25   13   16 1
    26   14   17 1
    27   14   18 1
    28   15   31 1
    29   16   17 1
    30   17   31 1
    31   18   41 1
    32   19   29 1
    33   20   29 1
    34   21   28 1
    35   22   23 1
    36   22   25 1
    37   23   30 1
    38   24   27 1
    39   24   29 1
    40   25   36 1
    41   26   30 1
    42   26   42 1
    43   27   35 1
    44   28   43 1
    45   30   34 1
    46    1   44 1
    47    2   45 1
    48    3   46 1
    49    4   47 1
    50   11   48 1
    51   11   49 1
    52   12   50 1
    53   12   51 1
    54   13   52 1
    55   13   53 1
    56   14   54 1
    57   14   55 1
    58   15   56 1
    59   16   57 1
    60   17   58 1
    61   18   59 1
    62   19   60 1
    63   19   61 1
    64   19   62 1
    65   20   63 1
    66   20   64 1
    67   20   65 1
    68   21   66 1
    69   21   67 1
    70   22   68 1
    71   22   69 1
    72   23   70 1
    73   23   71 1
    74   24   72 1
    75   24   73 1
    76   25   74 1
    77   25   75 1
    78   26   76 1
    79   26   77 1
    80   27   78 1
    81   28   79 1
    82   29   80 1
    83   30   81 1
    84   32   82 1
    85   32   83 1
    86   33   84 1
    87   33   85 1
    88   34   86 1
    89   35   87 1
    90   36   88 1
    91   40   89 1
    92   41   90 1
    93   42   91 1
    94   43   92 1
@<TRIPOS>MOLECULE
1a2c_ligand_124
   92    94     0     0     0
SMALL
USER_CHARGES

mmff94s_NoEstat = 111.37
@<TRIPOS>ATOM
      1 C1          8.6458    1.5507    3.5275 C.ar      1 <0>        -0.0708
      2 C2          8.6534    0.6081    1.3030 C.ar      1 <0>        -0.0872
      3 C3          9.9381    2.0357    3.3263 C.ar      1 <0>        -0.2241
      4 C4          9.9457    1.0931    1.1018 C.ar      1 <0>        -0.1600
      5 C5          8.0208    0.8434    2.5131 C.ar      1 <0>        -0.1356
      6 C6         10.5880    1.8070    2.1135 C.ar      1 <0>         0.1290
      7 C7          0.1755   -1.0766    0.1327 C.2       1 <0>         0.6664
      8 C8          2.3785   -0.9757    2.2764 C.2       1 <0>         0.6651
      9 C9          5.2695   -1.7615    3.1198 C.2       1 <0>         0.6454
     10 C10        -2.6284    5.4301   -1.9251 C.cat     1 <0>         0.6349
     11 C11         2.4521   -5.3069   -0.2561 C.3       1 <0>        -0.0642
     12 C12         1.2413   -5.9691    0.3982 C.3       1 <0>        -0.0747
     13 C13         1.5734   -2.9393   -0.7647 C.3       1 <0>        -0.0873
     14 C14         1.0938   -4.1277    2.1072 C.3       1 <0>        -0.1371
     15 C15         1.5650   -1.6216    0.0133 C.3       1 <0>         0.0360
     16 C16         2.5597   -3.8106    0.0203 C.3       1 <0>        -0.0720
     17 C17         2.2934   -3.4012    1.4755 C.3       1 <0>         0.1201
     18 C18         1.1411   -5.6363    1.8853 C.3       1 <0>         0.1453
     19 C19         3.8896   -0.8379    6.4377 C.3       1 <0>        -0.0968
     20 C20         2.2599   -2.7349    6.3694 C.3       1 <0>        -0.0986
     21 C21         6.6216    0.3189    2.7306 C.3       1 <0>        -0.0191
     22 C22        -0.8392    2.2664   -0.8852 C.3       1 <0>        -0.1009
     23 C23        -1.6754    1.2905   -1.7214 C.3       1 <0>        -0.0942
     24 C24         1.9925   -0.8489    4.7298 C.3       1 <0>        -0.0988
     25 C25        -0.9003    3.6784   -1.4634 C.3       1 <0>         0.1966
     26 C26        -2.5783   -1.1036   -2.0263 C.3       1 <0>         0.1128
     27 C27         2.8496   -1.4560    3.6253 C.3       1 <0>         0.0786
     28 C28         6.6222   -1.0920    3.3282 C.3       1 <0>         0.0744
     29 C29         2.4383   -1.2292    6.1562 C.3       1 <0>        -0.0678
     30 C30        -1.7203   -0.1547   -1.1858 C.3       1 <0>         0.1065
     31 N1          2.0322   -1.9586    1.3590 N.am      1 <0>        -0.4315
     32 N2         -3.9568    5.8427   -1.9149 N.pl3     1 <0>        -0.8671
     33 N3         -1.6515    6.3017   -2.3941 N.pl3     1 <0>        -0.8581
     34 N4         -0.3878   -0.7030   -1.0725 N.am      1 <0>        -0.5687
     35 N5          4.2184   -1.0331    3.6724 N.am      1 <0>        -0.5746
     36 N6         -2.2644    4.1511   -1.4699 N.pl3     1 <0>        -0.7533
     37 O1         -0.3509   -1.0007    1.2367 O.2       1 <0>        -0.5843
     38 O2          2.3230    0.2335    2.0409 O.2       1 <0>        -0.6812
     39 O3          5.1476   -2.8360    2.5359 O.2       1 <0>        -0.5788
     40 O4         11.8484    2.2817    1.9166 O.3       1 <0>        -0.4938
     41 O5          2.2611   -6.1715    2.5852 O.3       1 <0>        -0.6030
     42 O6         -2.5724   -2.4015   -1.4465 O.3       1 <0>        -0.5860
     43 O7          6.8631   -1.0017    4.7250 O.3       1 <0>        -0.6021
     44 H1          8.1477    1.7337    4.4757 H         1 <0>         0.1412
     45 H2          8.1605    0.0531    0.5089 H         1 <0>         0.1451
     46 H3         10.4330    2.5911    4.1181 H         1 <0>         0.1336
     47 H4         10.4465    0.9125    0.1543 H         1 <0>         0.1567
     48 H5          3.3605   -5.7937    0.1218 H         1 <0>         0.0649
     49 H6          2.4319   -5.4897   -1.3370 H         1 <0>         0.0476
     50 H7          0.3241   -5.6545   -0.1129 H         1 <0>         0.0641
     51 H8          1.3294   -7.0545    0.2691 H         1 <0>         0.0484
     52 H9          0.5754   -3.3919   -0.8000 H         1 <0>         0.0596
     53 H10         1.8977   -2.7914   -1.8003 H         1 <0>         0.0757
     54 H11         1.0807   -3.9085    3.1823 H         1 <0>         0.0782
     55 H12         0.1523   -3.7376    1.7002 H         1 <0>         0.0812
     56 H13         2.2202   -0.8626   -0.4249 H         1 <0>         0.0731
     57 H14         3.5726   -3.4842   -0.2571 H         1 <0>         0.0511
     58 H15         3.1875   -3.5701    2.0864 H         1 <0>         0.0753
     59 H16         0.2435   -6.1003    2.3075 H         1 <0>         0.0427
     60 H17         4.2001   -1.1859    7.4289 H         1 <0>         0.0450
     61 H18         4.0203    0.2482    6.4220 H         1 <0>         0.0406
     62 H19         4.5693   -1.2752    5.6986 H         1 <0>         0.0274
     63 H20         2.8852   -3.3113    5.6789 H         1 <0>         0.0476
     64 H21         2.5335   -3.0185    7.3913 H         1 <0>         0.0170
     65 H22         1.2173   -3.0301    6.2104 H         1 <0>         0.0477
     66 H23         6.0831    0.3221    1.7735 H         1 <0>         0.0814
     67 H24         6.0853    1.0243    3.3778 H         1 <0>         0.0685
     68 H25        -1.2041    2.2870    0.1483 H         1 <0>         0.1016
     69 H26         0.2054    1.9349   -0.8467 H         1 <0>         0.0660
     70 H27        -1.2820    1.2733   -2.7469 H         1 <0>         0.0512
     71 H28        -2.7004    1.6751   -1.7996 H         1 <0>         0.0454
     72 H29         0.9469   -1.1516    4.5828 H         1 <0>         0.0575
     73 H30         2.0032    0.2464    4.6399 H         1 <0>         0.0743
     74 H31        -0.5130    3.6867   -2.4878 H         1 <0>         0.0662
     75 H32        -0.2876    4.3637   -0.8686 H         1 <0>         0.0622
     76 H33        -2.2157   -1.1795   -3.0567 H         1 <0>         0.0321
     77 H34        -3.6169   -0.7550   -2.0576 H         1 <0>         0.0204
     78 H35         2.8203   -2.5449    3.6159 H         1 <0>         0.0749
     79 H36         7.4053   -1.7180    2.8841 H         1 <0>         0.0719
     80 H37         1.7968   -0.7138    6.8816 H         1 <0>         0.0609
     81 H38        -2.1562   -0.1031   -0.1797 H         1 <0>         0.1063
     82 H39        -4.7045    5.2392   -1.5832 H         1 <0>         0.4792
     83 H40        -4.2189    6.7685   -2.2453 H         1 <0>         0.4819
     84 H41        -0.6709    6.0323   -2.4155 H         1 <0>         0.4802
     85 H42        -1.8920    7.2322   -2.7271 H         1 <0>         0.4826
     86 H43         0.1607   -0.8193   -1.9192 H         1 <0>         0.3101
     87 H44         4.4349   -0.1495    4.1364 H         1 <0>         0.3087
     88 H45        -3.0256    3.5484   -1.1344 H         1 <0>         0.4846
     89 H46        12.3411    2.2846    2.7528 H         1 <0>         0.4194
     90 H47         2.7873   -5.4145    2.8873 H         1 <0>         0.4036
     91 H48        -1.7464   -2.8287   -1.7250 H         1 <0>         0.4114
     92 H49         7.2149   -0.1122    4.8926 H         1 <0>         0.3944
@<TRIPOS>BOND
     1    1    3 ar
     2    1    5 ar
     3    2    4 ar
     4    2    5 ar
     5    3    6 ar
     6    4    6 ar
     7    5   21 1
     8    6   40 1
     9    7   15 1
    10    7   34 am
    11    7   37 2
    12    8   27 1
    13    8   31 am
    14    8   38 2
    15    9   28 1
    16    9   35 am
    17    9   39 2
    18   10   32 1
    19   10   33 1
    20   10   36 1
    21   11   12 1
    22   11   16 1
    23   12   18 1
    24   13   15 1
    25   13   16 1
    26   14   17 1
    27   14   18 1
    28   15   31 1
    29   16   17 1
    30   17   31 1
    31   18   41 1
    32   19   29 1
    33   20   29 1
    34   21   28 1
    35   22   23 1
    36   22   25 1
    37   23   30 1
    38   24   27 1
    39   24   29 1
    40   25   36 1
    41   26   30 1
    42   26   42 1
    43   27   35 1
    44   28   43 1
    45   30   34 1
    46    1   44 1
    47    2   45 1
    48    3   46 1
    49    4   47 1
    50   11   48 1
    51   11   49 1
    52   12   50 1
    53   12   51 1
    54   13   52 1
    55   13   53 1
    56   14   54 1
    57   14   55 1
    58   15   56 1
    59   16   57 1
    60   17   58 1
    61   18   59 1
    62   19   60 1
    63   19   61 1
    64   19   62 1
    65   20   63 1
    66   20   64 1
    67   20   65 1
    68   21   66 1
    69   21   67 1
    70   22   68 1
    71   22   69 1
    72   23   70 1
    73   23   71 1
    74   24   72 1
    75   24   73 1
    76   25   74 1
    77   25   75 1
    78   26   76 1
    79   26   77 1
    80   27   78 1
    81   28   79 1
    82   29   80 1
    83   30   81 1
    84   32   82 1
    85   32   83 1
    86   33   84 1
    87   33   85 1
    88   34   86 1
    89   35   87 1
    90   36   88 1
    91   40   89 1
    92   41   90 1
    93   42   91 1
    94   43   92 1
@<TRIPOS>MOLECULE
1a2c_ligand_125
   92    94     0     0     0
SMALL
USER_CHARGES

mmff94s_NoEstat = 111.51
@<TRIPOS>ATOM
      1 C1         -7.6099   -2.3497   -1.0210 C.ar      1 <0>        -0.0708
      2 C2         -5.4940   -1.7642   -2.0295 C.ar      1 <0>        -0.0872
      3 C3         -7.9936   -1.0089   -1.0476 C.ar      1 <0>        -0.2241
      4 C4         -5.8776   -0.4234   -2.0561 C.ar      1 <0>        -0.1600
      5 C5         -6.3654   -2.7094   -1.5124 C.ar      1 <0>        -0.1356
      6 C6         -7.1274   -0.0457   -1.5651 C.ar      1 <0>         0.1290
      7 C7         -0.0512   -1.0561    0.2993 C.2       1 <0>         0.6664
      8 C8         -1.8469   -3.0457    2.1630 C.2       1 <0>         0.6651
      9 C9         -3.9484   -3.7154   -0.0348 C.2       1 <0>         0.6454
     10 C10        -1.3680    6.0369   -2.4463 C.cat     1 <0>         0.6349
     11 C11         2.5186   -3.1911    0.6823 C.3       1 <0>        -0.0642
     12 C12         2.4580   -4.6414    0.2376 C.3       1 <0>        -0.0747
     13 C13         1.4874   -1.4827    2.2418 C.3       1 <0>        -0.0873
     14 C14         0.4946   -5.0934    1.7133 C.3       1 <0>        -0.1371
     15 C15         0.0412   -1.4176    1.7503 C.3       1 <0>         0.0360
     16 C16         1.8865   -2.9529    2.0632 C.3       1 <0>        -0.0720
     17 C17         0.5665   -3.7001    2.3454 C.3       1 <0>         0.1201
     18 C18         1.0248   -5.1525    0.2868 C.3       1 <0>         0.1453
     19 C19        -5.5746   -0.7475    1.4860 C.3       1 <0>        -0.0968
     20 C20        -3.7112    0.7464    0.7408 C.3       1 <0>        -0.0986
     21 C21        -5.9503   -4.1611   -1.4843 C.3       1 <0>        -0.0191
     22 C22        -1.0374    2.7415   -0.6235 C.3       1 <0>        -0.1009
     23 C23         0.2513    2.2726   -1.3090 C.3       1 <0>        -0.0942
     24 C24        -3.2372   -1.0062    2.4788 C.3       1 <0>        -0.0988
     25 C25        -1.1758    4.2607   -0.6924 C.3       1 <0>         0.1966
     26 C26         1.7383    0.3016   -2.0469 C.3       1 <0>         0.1128
     27 C27        -2.8325   -2.1090    1.5076 C.3       1 <0>         0.0786
     28 C28        -5.2285   -4.5282   -0.1835 C.3       1 <0>         0.0744
     29 C29        -4.2955   -0.0321    1.9228 C.3       1 <0>        -0.0678
     30 C30         0.4555    0.7445   -1.3388 C.3       1 <0>         0.1065
     31 N1         -0.4979   -2.7598    1.9615 N.am      1 <0>        -0.4315
     32 N2         -1.4040    6.4058   -3.7870 N.pl3     1 <0>        -0.8671
     33 N3         -1.4802    7.0203   -1.4694 N.pl3     1 <0>        -0.8581
     34 N4          0.4455    0.1980   -0.0008 N.am      1 <0>        -0.5687
     35 N5         -3.9193   -2.9688    1.1410 N.am      1 <0>        -0.5746
     36 N6         -1.2206    4.6907   -2.0698 N.pl3     1 <0>        -0.7533
     37 O1         -0.5362   -1.8555   -0.4928 O.2       1 <0>        -0.5843
     38 O2         -2.2659   -3.9924    2.8322 O.2       1 <0>        -0.6812
     39 O3         -3.0587   -3.7239   -0.8825 O.2       1 <0>        -0.5788
     40 O4         -7.5025    1.2624   -1.5925 O.3       1 <0>        -0.4938
     41 O5          0.9879   -6.5072   -0.1510 O.3       1 <0>        -0.6030
     42 O6          2.8703    0.8436   -1.3793 O.3       1 <0>        -0.5860
     43 O7         -4.8793   -5.9045   -0.2220 O.3       1 <0>        -0.6021
     44 H1         -8.2914   -3.0928   -0.6158 H         1 <0>         0.1412
     45 H2         -4.5184   -2.0494   -2.4145 H         1 <0>         0.1451
     46 H3         -8.9684   -0.7211   -0.6638 H         1 <0>         0.1336
     47 H4         -5.1988    0.3222   -2.4614 H         1 <0>         0.1567
     48 H5          3.5627   -2.8549    0.7003 H         1 <0>         0.0649
     49 H6          2.0259   -2.5829   -0.0837 H         1 <0>         0.0476
     50 H7          2.8567   -4.7427   -0.7790 H         1 <0>         0.0641
     51 H8          3.1032   -5.2618    0.8729 H         1 <0>         0.0484
     52 H9          2.1569   -0.7868    1.7257 H         1 <0>         0.0596
     53 H10         1.5124   -1.2395    3.3116 H         1 <0>         0.0757
     54 H11         1.0921   -5.7802    2.3299 H         1 <0>         0.0782
     55 H12        -0.5175   -5.5090    1.7393 H         1 <0>         0.0812
     56 H13        -0.5378   -0.6778    2.3126 H         1 <0>         0.0731
     57 H14         2.6304   -3.2407    2.8169 H         1 <0>         0.0511
     58 H15         0.4523   -3.8218    3.4319 H         1 <0>         0.0753
     59 H16         0.3841   -4.5700   -0.3844 H         1 <0>         0.0427
     60 H17        -6.2768   -0.0422    1.0282 H         1 <0>         0.0450
     61 H18        -6.0867   -1.2049    2.3377 H         1 <0>         0.0406
     62 H19        -5.3599   -1.5330    0.7535 H         1 <0>         0.0274
     63 H20        -3.4369    0.0757   -0.0807 H         1 <0>         0.0476
     64 H21        -4.4352    1.4732    0.3573 H         1 <0>         0.0170
     65 H22        -2.8146    1.2981    1.0427 H         1 <0>         0.0477
     66 H23        -5.3012   -4.3667   -2.3460 H         1 <0>         0.0814
     67 H24        -6.8454   -4.7788   -1.6300 H         1 <0>         0.0685
     68 H25        -1.9092    2.2808   -1.1025 H         1 <0>         0.1016
     69 H26        -1.0467    2.4234    0.4259 H         1 <0>         0.0660
     70 H27         1.1110    2.7323   -0.8028 H         1 <0>         0.0512
     71 H28         0.2685    2.6560   -2.3373 H         1 <0>         0.0454
     72 H29        -2.3434   -0.4411    2.7760 H         1 <0>         0.0575
     73 H30        -3.6273   -1.4576    3.4018 H         1 <0>         0.0743
     74 H31        -0.3281    4.7425   -0.1937 H         1 <0>         0.0662
     75 H32        -2.0906    4.5862   -0.1866 H         1 <0>         0.0622
     76 H33         1.7614    0.6251   -3.0928 H         1 <0>         0.0321
     77 H34         1.8289   -0.7905   -2.0281 H         1 <0>         0.0204
     78 H35        -2.3687   -1.7253    0.5998 H         1 <0>         0.0749
     79 H36        -5.8654   -4.3596    0.6929 H         1 <0>         0.0719
     80 H37        -4.5575    0.6951    2.7011 H         1 <0>         0.0609
     81 H38        -0.3978    0.3245   -1.8868 H         1 <0>         0.1063
     82 H39        -1.3238    5.7221   -4.5349 H         1 <0>         0.4792
     83 H40        -1.5101    7.3807   -4.0580 H         1 <0>         0.4819
     84 H41        -1.4576    6.7856   -0.4800 H         1 <0>         0.4802
     85 H42        -1.5888    8.0004   -1.7189 H         1 <0>         0.4826
     86 H43         0.8216    0.7626    0.7549 H         1 <0>         0.3101
     87 H44        -4.7157   -3.0377    1.7764 H         1 <0>         0.3087
     88 H45        -1.1423    4.0061   -2.8316 H         1 <0>         0.4846
     89 H46        -8.0762    1.4637   -0.8361 H         1 <0>         0.4194
     90 H47         1.8515   -6.8926    0.0654 H         1 <0>         0.4036
     91 H48         2.9636    1.7601   -1.6856 H         1 <0>         0.4114
     92 H49        -5.4048   -6.3080   -0.9320 H         1 <0>         0.3944
@<TRIPOS>BOND
     1    1    3 ar
     2    1    5 ar
     3    2    4 ar
     4    2    5 ar
     5    3    6 ar
     6    4    6 ar
     7    5   21 1
     8    6   40 1
     9    7   15 1
    10    7   34 am
    11    7   37 2
    12    8   27 1
    13    8   31 am
    14    8   38 2
    15    9   28 1
    16    9   35 am
    17    9   39 2
    18   10   32 1
    19   10   33 1
    20   10   36 1
    21   11   12 1
    22   11   16 1
    23   12   18 1
    24   13   15 1
    25   13   16 1
    26   14   17 1
    27   14   18 1
    28   15   31 1
    29   16   17 1
    30   17   31 1
    31   18   41 1
    32   19   29 1
    33   20   29 1
    34   21   28 1
    35   22   23 1
    36   22   25 1
    37   23   30 1
    38   24   27 1
    39   24   29 1
    40   25   36 1
    41   26   30 1
    42   26   42 1
    43   27   35 1
    44   28   43 1
    45   30   34 1
    46    1   44 1
    47    2   45 1
    48    3   46 1
    49    4   47 1
    50   11   48 1
    51   11   49 1
    52   12   50 1
    53   12   51 1
    54   13   52 1
    55   13   53 1
    56   14   54 1
    57   14   55 1
    58   15   56 1
    59   16   57 1
    60   17   58 1
    61   18   59 1
    62   19   60 1
    63   19   61 1
    64   19   62 1
    65   20   63 1
    66   20   64 1
    67   20   65 1
    68   21   66 1
    69   21   67 1
    70   22   68 1
    71   22   69 1
    72   23   70 1
    73   23   71 1
    74   24   72 1
    75   24   73 1
    76   25   74 1
    77   25   75 1
    78   26   76 1
    79   26   77 1
    80   27   78 1
    81   28   79 1
    82   29   80 1
    83   30   81 1
    84   32   82 1
    85   32   83 1
    86   33   84 1
    87   33   85 1
    88   34   86 1
    89   35   87 1
    90   36   88 1
    91   40   89 1
    92   41   90 1
    93   42   91 1
    94   43   92 1
@<TRIPOS>MOLECULE
1a2c_ligand_126
   92    94     0     0     0
SMALL
USER_CHARGES

mmff94s_NoEstat = 111.51
@<TRIPOS>ATOM
      1 C1          8.7543    1.2597    2.9884 C.ar      1 <0>        -0.0708
      2 C2          9.0296   -0.6325    1.5115 C.ar      1 <0>        -0.0872
      3 C3         10.0864    1.6167    2.7793 C.ar      1 <0>        -0.2241
      4 C4         10.3616   -0.2755    1.3024 C.ar      1 <0>        -0.1600
      5 C5          8.2437    0.1400    2.3517 C.ar      1 <0>        -0.1356
      6 C6         10.8901    0.8491    1.9363 C.ar      1 <0>         0.1290
      7 C7          0.1755   -1.0766    0.1327 C.2       1 <0>         0.6664
      8 C8          2.3785   -0.9757    2.2764 C.2       1 <0>         0.6651
      9 C9          5.2968   -1.9145    3.7000 C.2       1 <0>         0.6454
     10 C10        -1.2861    1.9242    4.3304 C.cat     1 <0>         0.6349
     11 C11         2.4521   -5.3069   -0.2561 C.3       1 <0>        -0.0642
     12 C12         1.2413   -5.9691    0.3982 C.3       1 <0>        -0.0747
     13 C13         1.5734   -2.9393   -0.7647 C.3       1 <0>        -0.0873
     14 C14         1.0938   -4.1277    2.1072 C.3       1 <0>        -0.1371
     15 C15         1.5650   -1.6216    0.0133 C.3       1 <0>         0.0360
     16 C16         2.5597   -3.8106    0.0203 C.3       1 <0>        -0.0720
     17 C17         2.2934   -3.4012    1.4755 C.3       1 <0>         0.1201
     18 C18         1.1411   -5.6363    1.8853 C.3       1 <0>         0.1453
     19 C19         3.8896   -0.8379    6.4377 C.3       1 <0>        -0.0968
     20 C20         2.2599   -2.7349    6.3694 C.3       1 <0>        -0.0986
     21 C21         6.8014   -0.2461    2.5776 C.3       1 <0>        -0.0191
     22 C22        -0.6430    2.4326    0.6399 C.3       1 <0>        -0.1009
     23 C23        -1.2979    2.0260   -0.6854 C.3       1 <0>        -0.0942
     24 C24         1.9925   -0.8489    4.7298 C.3       1 <0>        -0.0988
     25 C25        -1.4152    1.8692    1.8307 C.3       1 <0>         0.1966
     26 C26        -2.1127    0.1273   -2.2253 C.3       1 <0>         0.1128
     27 C27         2.8496   -1.4560    3.6253 C.3       1 <0>         0.0786
     28 C28         6.6400   -1.1984    3.7670 C.3       1 <0>         0.0744
     29 C29         2.4383   -1.2292    6.1562 C.3       1 <0>        -0.0678
     30 C30        -1.4370    0.5062   -0.9051 C.3       1 <0>         0.1065
     31 N1          2.0322   -1.9586    1.3590 N.am      1 <0>        -0.4315
     32 N2         -0.6437    2.3351    5.4937 N.pl3     1 <0>        -0.8671
     33 N3         -2.4412    1.1561    4.4289 N.pl3     1 <0>        -0.8581
     34 N4         -0.1481   -0.1440   -0.8342 N.am      1 <0>        -0.5687
     35 N5          4.2184   -1.0331    3.6724 N.am      1 <0>        -0.5746
     36 N6         -0.7846    2.2739    3.0647 N.pl3     1 <0>        -0.7533
     37 O1         -0.5534   -1.4727    1.0347 O.2       1 <0>        -0.5843
     38 O2          2.3230    0.2335    2.0409 O.2       1 <0>        -0.6812
     39 O3          5.2019   -3.1398    3.6875 O.2       1 <0>        -0.5788
     40 O4         12.1895    1.1984    1.7309 O.3       1 <0>        -0.4938
     41 O5          2.2611   -6.1715    2.5852 O.3       1 <0>        -0.6030
     42 O6         -2.2112   -1.2870   -2.3289 O.3       1 <0>        -0.5860
     43 O7          6.6827   -0.4452    4.9705 O.3       1 <0>        -0.6021
     44 H1          8.1360    1.8636    3.6469 H         1 <0>         0.1412
     45 H2          8.6262   -1.5102    1.0132 H         1 <0>         0.1451
     46 H3         10.4921    2.4937    3.2757 H         1 <0>         0.1336
     47 H4         10.9825   -0.8770    0.6437 H         1 <0>         0.1567
     48 H5          3.3605   -5.7937    0.1218 H         1 <0>         0.0649
     49 H6          2.4319   -5.4897   -1.3370 H         1 <0>         0.0476
     50 H7          0.3241   -5.6545   -0.1129 H         1 <0>         0.0641
     51 H8          1.3294   -7.0545    0.2691 H         1 <0>         0.0484
     52 H9          0.5754   -3.3919   -0.8000 H         1 <0>         0.0596
     53 H10         1.8977   -2.7914   -1.8003 H         1 <0>         0.0757
     54 H11         1.0807   -3.9085    3.1823 H         1 <0>         0.0782
     55 H12         0.1523   -3.7376    1.7002 H         1 <0>         0.0812
     56 H13         2.2202   -0.8626   -0.4249 H         1 <0>         0.0731
     57 H14         3.5726   -3.4842   -0.2571 H         1 <0>         0.0511
     58 H15         3.1875   -3.5701    2.0864 H         1 <0>         0.0753
     59 H16         0.2435   -6.1003    2.3075 H         1 <0>         0.0427
     60 H17         4.2001   -1.1859    7.4289 H         1 <0>         0.0450
     61 H18         4.0203    0.2482    6.4220 H         1 <0>         0.0406
     62 H19         4.5693   -1.2752    5.6986 H         1 <0>         0.0274
     63 H20         2.8852   -3.3113    5.6789 H         1 <0>         0.0476
     64 H21         2.5335   -3.0185    7.3913 H         1 <0>         0.0170
     65 H22         1.2173   -3.0301    6.2104 H         1 <0>         0.0477
     66 H23         6.4066   -0.7130    1.6653 H         1 <0>         0.0814
     67 H24         6.2170    0.6714    2.7209 H         1 <0>         0.0685
     68 H25         0.3900    2.0675    0.6783 H         1 <0>         0.1016
     69 H26        -0.5969    3.5252    0.7212 H         1 <0>         0.0660
     70 H27        -0.7150    2.4492   -1.5148 H         1 <0>         0.0512
     71 H28        -2.2909    2.4892   -0.7497 H         1 <0>         0.0454
     72 H29         0.9469   -1.1516    4.5828 H         1 <0>         0.0575
     73 H30         2.0032    0.2464    4.6399 H         1 <0>         0.0743
     74 H31        -1.4416    0.7754    1.7834 H         1 <0>         0.0662
     75 H32        -2.4491    2.2294    1.8230 H         1 <0>         0.0622
     76 H33        -1.5587    0.5035   -3.0917 H         1 <0>         0.0321
     77 H34        -3.1279    0.5382   -2.2680 H         1 <0>         0.0204
     78 H35         2.8203   -2.5449    3.6159 H         1 <0>         0.0749
     79 H36         7.4436   -1.9436    3.7993 H         1 <0>         0.0719
     80 H37         1.7968   -0.7138    6.8816 H         1 <0>         0.0609
     81 H38        -2.0581    0.1260   -0.0837 H         1 <0>         0.1063
     82 H39         0.2039    2.8957    5.4704 H         1 <0>         0.4792
     83 H40        -1.0075    2.0807    6.4092 H         1 <0>         0.4819
     84 H41        -2.9358    0.8388    3.5987 H         1 <0>         0.4802
     85 H42        -2.8225    0.8924    5.3343 H         1 <0>         0.4826
     86 H43         0.5534    0.0962   -1.5282 H         1 <0>         0.3101
     87 H44         4.4137   -0.0309    3.6864 H         1 <0>         0.3087
     88 H45         0.0710    2.8422    3.0499 H         1 <0>         0.4846
     89 H46        12.5567    1.6117    2.5285 H         1 <0>         0.4194
     90 H47         2.7873   -5.4145    2.8873 H         1 <0>         0.4036
     91 H48        -1.3448   -1.6067   -2.6281 H         1 <0>         0.4114
     92 H49         7.0545    0.4233    4.7455 H         1 <0>         0.3944
@<TRIPOS>BOND
     1    1    3 ar
     2    1    5 ar
     3    2    4 ar
     4    2    5 ar
     5    3    6 ar
     6    4    6 ar
     7    5   21 1
     8    6   40 1
     9    7   15 1
    10    7   34 am
    11    7   37 2
    12    8   27 1
    13    8   31 am
    14    8   38 2
    15    9   28 1
    16    9   35 am
    17    9   39 2
    18   10   32 1
    19   10   33 1
    20   10   36 1
    21   11   12 1
    22   11   16 1
    23   12   18 1
    24   13   15 1
    25   13   16 1
    26   14   17 1
    27   14   18 1
    28   15   31 1
    29   16   17 1
    30   17   31 1
    31   18   41 1
    32   19   29 1
    33   20   29 1
    34   21   28 1
    35   22   23 1
    36   22   25 1
    37   23   30 1
    38   24   27 1
    39   24   29 1
    40   25   36 1
    41   26   30 1
    42   26   42 1
    43   27   35 1
    44   28   43 1
    45   30   34 1
    46    1   44 1
    47    2   45 1
    48    3   46 1
    49    4   47 1
    50   11   48 1
    51   11   49 1
    52   12   50 1
    53   12   51 1
    54   13   52 1
    55   13   53 1
    56   14   54 1
    57   14   55 1
    58   15   56 1
    59   16   57 1
    60   17   58 1
    61   18   59 1
    62   19   60 1
    63   19   61 1
    64   19   62 1
    65   20   63 1
    66   20   64 1
    67   20   65 1
    68   21   66 1
    69   21   67 1
    70   22   68 1
    71   22   69 1
    72   23   70 1
    73   23   71 1
    74   24   72 1
    75   24   73 1
    76   25   74 1
    77   25   75 1
    78   26   76 1
    79   26   77 1
    80   27   78 1
    81   28   79 1
    82   29   80 1
    83   30   81 1
    84   32   82 1
    85   32   83 1
    86   33   84 1
    87   33   85 1
    88   34   86 1
    89   35   87 1
    90   36   88 1
    91   40   89 1
    92   41   90 1
    93   42   91 1
    94   43   92 1
@<TRIPOS>MOLECULE
1a2c_ligand_127
   92    94     0     0     0
SMALL
USER_CHARGES

mmff94s_NoEstat = 111.53
@<TRIPOS>ATOM
      1 C1          8.7134   -2.2414    5.6573 C.ar      1 <0>        -0.0708
      2 C2          7.1386   -3.9431    4.9781 C.ar      1 <0>        -0.0872
      3 C3          8.8315   -2.8496    6.9070 C.ar      1 <0>        -0.2241
      4 C4          7.2568   -4.5513    6.2278 C.ar      1 <0>        -0.1600
      5 C5          7.8686   -2.7964    4.7096 C.ar      1 <0>        -0.1356
      6 C6          8.1032   -4.0045    7.1923 C.ar      1 <0>         0.1290
      7 C7          0.1755   -1.0766    0.1327 C.2       1 <0>         0.6664
      8 C8          2.3785   -0.9757    2.2764 C.2       1 <0>         0.6651
      9 C9          5.2695   -1.7615    3.1198 C.2       1 <0>         0.6454
     10 C10        -3.4628    2.8942    1.7632 C.cat     1 <0>         0.6349
     11 C11         2.4521   -5.3069   -0.2561 C.3       1 <0>        -0.0642
     12 C12         1.2413   -5.9691    0.3982 C.3       1 <0>        -0.0747
     13 C13         1.5734   -2.9393   -0.7647 C.3       1 <0>        -0.0873
     14 C14         1.0938   -4.1277    2.1072 C.3       1 <0>        -0.1371
     15 C15         1.5650   -1.6216    0.0133 C.3       1 <0>         0.0360
     16 C16         2.5597   -3.8106    0.0203 C.3       1 <0>        -0.0720
     17 C17         2.2934   -3.4012    1.4755 C.3       1 <0>         0.1201
     18 C18         1.1411   -5.6363    1.8853 C.3       1 <0>         0.1453
     19 C19         3.8896   -0.8379    6.4377 C.3       1 <0>        -0.0968
     20 C20         2.2599   -2.7349    6.3694 C.3       1 <0>        -0.0986
     21 C21         7.7412   -2.1384    3.3563 C.3       1 <0>        -0.0191
     22 C22        -0.8392    2.2664   -0.8852 C.3       1 <0>        -0.1009
     23 C23        -1.6754    1.2905   -1.7214 C.3       1 <0>        -0.0942
     24 C24         1.9925   -0.8489    4.7298 C.3       1 <0>        -0.0988
     25 C25        -1.3442    2.3298    0.5545 C.3       1 <0>         0.1966
     26 C26        -2.5783   -1.1036   -2.0263 C.3       1 <0>         0.1128
     27 C27         2.8496   -1.4560    3.6253 C.3       1 <0>         0.0786
     28 C28         6.6222   -1.0920    3.3282 C.3       1 <0>         0.0744
     29 C29         2.4383   -1.2292    6.1562 C.3       1 <0>        -0.0678
     30 C30        -1.7203   -0.1547   -1.1858 C.3       1 <0>         0.1065
     31 N1          2.0322   -1.9586    1.3590 N.am      1 <0>        -0.4315
     32 N2         -4.7874    3.3180    1.7368 N.pl3     1 <0>        -0.8671
     33 N3         -2.8704    2.5971    2.9858 N.pl3     1 <0>        -0.8581
     34 N4         -0.3878   -0.7030   -1.0725 N.am      1 <0>        -0.5687
     35 N5          4.2184   -1.0331    3.6724 N.am      1 <0>        -0.5746
     36 N6         -2.7210    2.7636    0.5765 N.pl3     1 <0>        -0.7533
     37 O1         -0.3509   -1.0007    1.2367 O.2       1 <0>        -0.5843
     38 O2          2.3230    0.2335    2.0409 O.2       1 <0>        -0.6812
     39 O3          5.1476   -2.8360    2.5359 O.2       1 <0>        -0.5788
     40 O4          8.2197   -4.5989    8.4112 O.3       1 <0>        -0.4938
     41 O5          2.2611   -6.1715    2.5852 O.3       1 <0>        -0.6030
     42 O6         -2.5724   -2.4015   -1.4465 O.3       1 <0>        -0.5860
     43 O7          6.8495   -0.2021    2.2447 O.3       1 <0>        -0.6021
     44 H1          9.2846   -1.3419    5.4443 H         1 <0>         0.1412
     45 H2          6.4769   -4.3764    4.2325 H         1 <0>         0.1451
     46 H3          9.4925   -2.4190    7.6540 H         1 <0>         0.1336
     47 H4          6.6874   -5.4515    6.4438 H         1 <0>         0.1567
     48 H5          3.3605   -5.7937    0.1218 H         1 <0>         0.0649
     49 H6          2.4319   -5.4897   -1.3370 H         1 <0>         0.0476
     50 H7          0.3241   -5.6545   -0.1129 H         1 <0>         0.0641
     51 H8          1.3294   -7.0545    0.2691 H         1 <0>         0.0484
     52 H9          0.5754   -3.3919   -0.8000 H         1 <0>         0.0596
     53 H10         1.8977   -2.7914   -1.8003 H         1 <0>         0.0757
     54 H11         1.0807   -3.9085    3.1823 H         1 <0>         0.0782
     55 H12         0.1523   -3.7376    1.7002 H         1 <0>         0.0812
     56 H13         2.2202   -0.8626   -0.4249 H         1 <0>         0.0731
     57 H14         3.5726   -3.4842   -0.2571 H         1 <0>         0.0511
     58 H15         3.1875   -3.5701    2.0864 H         1 <0>         0.0753
     59 H16         0.2435   -6.1003    2.3075 H         1 <0>         0.0427
     60 H17         4.2001   -1.1859    7.4289 H         1 <0>         0.0450
     61 H18         4.0203    0.2482    6.4220 H         1 <0>         0.0406
     62 H19         4.5693   -1.2752    5.6986 H         1 <0>         0.0274
     63 H20         2.8852   -3.3113    5.6789 H         1 <0>         0.0476
     64 H21         2.5335   -3.0185    7.3913 H         1 <0>         0.0170
     65 H22         1.2173   -3.0301    6.2104 H         1 <0>         0.0477
     66 H23         7.5546   -2.9097    2.5971 H         1 <0>         0.0814
     67 H24         8.7095   -1.6918    3.0973 H         1 <0>         0.0685
     68 H25         0.2122    1.9562   -0.8821 H         1 <0>         0.1016
     69 H26        -0.8730    3.2698   -1.3263 H         1 <0>         0.0660
     70 H27        -1.2820    1.2733   -2.7469 H         1 <0>         0.0512
     71 H28        -2.7004    1.6751   -1.7996 H         1 <0>         0.0454
     72 H29         0.9469   -1.1516    4.5828 H         1 <0>         0.0575
     73 H30         2.0032    0.2464    4.6399 H         1 <0>         0.0743
     74 H31        -0.7382    3.0299    1.1393 H         1 <0>         0.0662
     75 H32        -1.2720    1.3464    1.0304 H         1 <0>         0.0622
     76 H33        -2.2157   -1.1795   -3.0567 H         1 <0>         0.0321
     77 H34        -3.6169   -0.7550   -2.0576 H         1 <0>         0.0204
     78 H35         2.8203   -2.5449    3.6159 H         1 <0>         0.0749
     79 H36         6.5944   -0.5059    4.2543 H         1 <0>         0.0719
     80 H37         1.7968   -0.7138    6.8816 H         1 <0>         0.0609
     81 H38        -2.1562   -0.1031   -0.1797 H         1 <0>         0.1063
     82 H39        -5.2609    3.5481    0.8672 H         1 <0>         0.4792
     83 H40        -5.3229    3.4127    2.5967 H         1 <0>         0.4819
     84 H41        -1.9040    2.2847    3.0413 H         1 <0>         0.4802
     85 H42        -3.3886    2.6833    3.8568 H         1 <0>         0.4826
     86 H43         0.1607   -0.8193   -1.9192 H         1 <0>         0.3101
     87 H44         4.4349   -0.1495    4.1364 H         1 <0>         0.3087
     88 H45        -3.2074    2.9960   -0.2979 H         1 <0>         0.4846
     89 H46         8.3834   -3.9314    9.0965 H         1 <0>         0.4194
     90 H47         2.7873   -5.4145    2.8873 H         1 <0>         0.4036
     91 H48        -1.7464   -2.8287   -1.7250 H         1 <0>         0.4114
     92 H49         7.7718   -0.3269    1.9673 H         1 <0>         0.3944
@<TRIPOS>BOND
     1    1    3 ar
     2    1    5 ar
     3    2    4 ar
     4    2    5 ar
     5    3    6 ar
     6    4    6 ar
     7    5   21 1
     8    6   40 1
     9    7   15 1
    10    7   34 am
    11    7   37 2
    12    8   27 1
    13    8   31 am
    14    8   38 2
    15    9   28 1
    16    9   35 am
    17    9   39 2
    18   10   32 1
    19   10   33 1
    20   10   36 1
    21   11   12 1
    22   11   16 1
    23   12   18 1
    24   13   15 1
    25   13   16 1
    26   14   17 1
    27   14   18 1
    28   15   31 1
    29   16   17 1
    30   17   31 1
    31   18   41 1
    32   19   29 1
    33   20   29 1
    34   21   28 1
    35   22   23 1
    36   22   25 1
    37   23   30 1
    38   24   27 1
    39   24   29 1
    40   25   36 1
    41   26   30 1
    42   26   42 1
    43   27   35 1
    44   28   43 1
    45   30   34 1
    46    1   44 1
    47    2   45 1
    48    3   46 1
    49    4   47 1
    50   11   48 1
    51   11   49 1
    52   12   50 1
    53   12   51 1
    54   13   52 1
    55   13   53 1
    56   14   54 1
    57   14   55 1
    58   15   56 1
    59   16   57 1
    60   17   58 1
    61   18   59 1
    62   19   60 1
    63   19   61 1
    64   19   62 1
    65   20   63 1
    66   20   64 1
    67   20   65 1
    68   21   66 1
    69   21   67 1
    70   22   68 1
    71   22   69 1
    72   23   70 1
    73   23   71 1
    74   24   72 1
    75   24   73 1
    76   25   74 1
    77   25   75 1
    78   26   76 1
    79   26   77 1
    80   27   78 1
    81   28   79 1
    82   29   80 1
    83   30   81 1
    84   32   82 1
    85   32   83 1
    86   33   84 1
    87   33   85 1
    88   34   86 1
    89   35   87 1
    90   36   88 1
    91   40   89 1
    92   41   90 1
    93   42   91 1
    94   43   92 1
@<TRIPOS>MOLECULE
1a2c_ligand_128
   92    94     0     0     0
SMALL
USER_CHARGES

mmff94s_NoEstat = 111.54
@<TRIPOS>ATOM
      1 C1          8.7543    1.2597    2.9884 C.ar      1 <0>        -0.0708
      2 C2          9.0296   -0.6325    1.5115 C.ar      1 <0>        -0.0872
      3 C3         10.0864    1.6167    2.7793 C.ar      1 <0>        -0.2241
      4 C4         10.3616   -0.2755    1.3024 C.ar      1 <0>        -0.1600
      5 C5          8.2437    0.1400    2.3517 C.ar      1 <0>        -0.1356
      6 C6         10.8901    0.8491    1.9363 C.ar      1 <0>         0.1290
      7 C7          0.1755   -1.0766    0.1327 C.2       1 <0>         0.6664
      8 C8          2.3785   -0.9757    2.2764 C.2       1 <0>         0.6651
      9 C9          5.2968   -1.9145    3.7000 C.2       1 <0>         0.6454
     10 C10        -0.9027    3.0370   -5.8579 C.cat     1 <0>         0.6349
     11 C11         2.4521   -5.3069   -0.2561 C.3       1 <0>        -0.0642
     12 C12         1.2413   -5.9691    0.3982 C.3       1 <0>        -0.0747
     13 C13         1.5734   -2.9393   -0.7647 C.3       1 <0>        -0.0873
     14 C14         1.0938   -4.1277    2.1072 C.3       1 <0>        -0.1371
     15 C15         1.5650   -1.6216    0.0133 C.3       1 <0>         0.0360
     16 C16         2.5597   -3.8106    0.0203 C.3       1 <0>        -0.0720
     17 C17         2.2934   -3.4012    1.4755 C.3       1 <0>         0.1201
     18 C18         1.1411   -5.6363    1.8853 C.3       1 <0>         0.1453
     19 C19         3.8896   -0.8379    6.4377 C.3       1 <0>        -0.0968
     20 C20         2.2599   -2.7349    6.3694 C.3       1 <0>        -0.0986
     21 C21         6.8014   -0.2461    2.5776 C.3       1 <0>        -0.0191
     22 C22        -0.8155    2.0502   -2.2095 C.3       1 <0>        -0.1009
     23 C23        -1.7941    0.8762   -2.3301 C.3       1 <0>        -0.0942
     24 C24         1.9925   -0.8489    4.7298 C.3       1 <0>        -0.0988
     25 C25        -1.0015    3.0414   -3.3563 C.3       1 <0>         0.1966
     26 C26        -2.7214   -1.3050   -1.3187 C.3       1 <0>         0.1128
     27 C27         2.8496   -1.4560    3.6253 C.3       1 <0>         0.0786
     28 C28         6.6400   -1.1984    3.7670 C.3       1 <0>         0.0744
     29 C29         2.4383   -1.2292    6.1562 C.3       1 <0>        -0.0678
     30 C30        -1.7203   -0.1547   -1.1858 C.3       1 <0>         0.1065
     31 N1          2.0322   -1.9586    1.3590 N.am      1 <0>        -0.4315
     32 N2         -0.6764    2.3611   -7.0524 N.pl3     1 <0>        -0.8671
     33 N3         -1.2564    4.3814   -5.8961 N.pl3     1 <0>        -0.8581
     34 N4         -0.3878   -0.7030   -1.0725 N.am      1 <0>        -0.5687
     35 N5          4.2184   -1.0331    3.6724 N.am      1 <0>        -0.5746
     36 N6         -0.7789    2.3814   -4.6207 N.pl3     1 <0>        -0.7533
     37 O1         -0.3509   -1.0007    1.2367 O.2       1 <0>        -0.5843
     38 O2          2.3230    0.2335    2.0409 O.2       1 <0>        -0.6812
     39 O3          5.2019   -3.1398    3.6875 O.2       1 <0>        -0.5788
     40 O4         12.1895    1.1984    1.7309 O.3       1 <0>        -0.4938
     41 O5          2.2611   -6.1715    2.5852 O.3       1 <0>        -0.6030
     42 O6         -2.4752   -2.0231   -2.5206 O.3       1 <0>        -0.5860
     43 O7          6.6827   -0.4452    4.9705 O.3       1 <0>        -0.6021
     44 H1          8.1360    1.8636    3.6469 H         1 <0>         0.1412
     45 H2          8.6262   -1.5102    1.0132 H         1 <0>         0.1451
     46 H3         10.4921    2.4937    3.2757 H         1 <0>         0.1336
     47 H4         10.9825   -0.8770    0.6437 H         1 <0>         0.1567
     48 H5          3.3605   -5.7937    0.1218 H         1 <0>         0.0649
     49 H6          2.4319   -5.4897   -1.3370 H         1 <0>         0.0476
     50 H7          0.3241   -5.6545   -0.1129 H         1 <0>         0.0641
     51 H8          1.3294   -7.0545    0.2691 H         1 <0>         0.0484
     52 H9          0.5754   -3.3919   -0.8000 H         1 <0>         0.0596
     53 H10         1.8977   -2.7914   -1.8003 H         1 <0>         0.0757
     54 H11         1.0807   -3.9085    3.1823 H         1 <0>         0.0782
     55 H12         0.1523   -3.7376    1.7002 H         1 <0>         0.0812
     56 H13         2.2202   -0.8626   -0.4249 H         1 <0>         0.0731
     57 H14         3.5726   -3.4842   -0.2571 H         1 <0>         0.0511
     58 H15         3.1875   -3.5701    2.0864 H         1 <0>         0.0753
     59 H16         0.2435   -6.1003    2.3075 H         1 <0>         0.0427
     60 H17         4.2001   -1.1859    7.4289 H         1 <0>         0.0450
     61 H18         4.0203    0.2482    6.4220 H         1 <0>         0.0406
     62 H19         4.5693   -1.2752    5.6986 H         1 <0>         0.0274
     63 H20         2.8852   -3.3113    5.6789 H         1 <0>         0.0476
     64 H21         2.5335   -3.0185    7.3913 H         1 <0>         0.0170
     65 H22         1.2173   -3.0301    6.2104 H         1 <0>         0.0477
     66 H23         6.4066   -0.7130    1.6653 H         1 <0>         0.0814
     67 H24         6.2170    0.6714    2.7209 H         1 <0>         0.0685
     68 H25        -0.9672    2.5721   -1.2575 H         1 <0>         0.1016
     69 H26         0.2183    1.6845   -2.2100 H         1 <0>         0.0660
     70 H27        -1.6130    0.3584   -3.2819 H         1 <0>         0.0512
     71 H28        -2.8171    1.2691   -2.3922 H         1 <0>         0.0454
     72 H29         0.9469   -1.1516    4.5828 H         1 <0>         0.0575
     73 H30         2.0032    0.2464    4.6399 H         1 <0>         0.0743
     74 H31        -0.2967    3.8737   -3.2572 H         1 <0>         0.0662
     75 H32        -2.0142    3.4573   -3.3438 H         1 <0>         0.0622
     76 H33        -3.7565   -0.9478   -1.3308 H         1 <0>         0.0321
     77 H34        -2.6144   -2.0048   -0.4820 H         1 <0>         0.0204
     78 H35         2.8203   -2.5449    3.6159 H         1 <0>         0.0749
     79 H36         7.4436   -1.9436    3.7993 H         1 <0>         0.0719
     80 H37         1.7968   -0.7138    6.8816 H         1 <0>         0.0609
     81 H38        -1.9472    0.3883   -0.2591 H         1 <0>         0.1063
     82 H39        -0.4141    1.3793   -7.0731 H         1 <0>         0.4792
     83 H40        -0.7658    2.8372   -7.9471 H         1 <0>         0.4819
     84 H41        -1.4289    4.9057   -5.0418 H         1 <0>         0.4802
     85 H42        -1.3529    4.8755   -6.7800 H         1 <0>         0.4826
     86 H43         0.1607   -0.8193   -1.9192 H         1 <0>         0.3101
     87 H44         4.4137   -0.0309    3.6864 H         1 <0>         0.3087
     88 H45        -0.5155    1.3889   -4.6505 H         1 <0>         0.4846
     89 H46        12.5567    1.6117    2.5285 H         1 <0>         0.4194
     90 H47         2.7873   -5.4145    2.8873 H         1 <0>         0.4036
     91 H48        -2.8906   -1.5183   -3.2383 H         1 <0>         0.4114
     92 H49         7.0545    0.4233    4.7455 H         1 <0>         0.3944
@<TRIPOS>BOND
     1    1    3 ar
     2    1    5 ar
     3    2    4 ar
     4    2    5 ar
     5    3    6 ar
     6    4    6 ar
     7    5   21 1
     8    6   40 1
     9    7   15 1
    10    7   34 am
    11    7   37 2
    12    8   27 1
    13    8   31 am
    14    8   38 2
    15    9   28 1
    16    9   35 am
    17    9   39 2
    18   10   32 1
    19   10   33 1
    20   10   36 1
    21   11   12 1
    22   11   16 1
    23   12   18 1
    24   13   15 1
    25   13   16 1
    26   14   17 1
    27   14   18 1
    28   15   31 1
    29   16   17 1
    30   17   31 1
    31   18   41 1
    32   19   29 1
    33   20   29 1
    34   21   28 1
    35   22   23 1
    36   22   25 1
    37   23   30 1
    38   24   27 1
    39   24   29 1
    40   25   36 1
    41   26   30 1
    42   26   42 1
    43   27   35 1
    44   28   43 1
    45   30   34 1
    46    1   44 1
    47    2   45 1
    48    3   46 1
    49    4   47 1
    50   11   48 1
    51   11   49 1
    52   12   50 1
    53   12   51 1
    54   13   52 1
    55   13   53 1
    56   14   54 1
    57   14   55 1
    58   15   56 1
    59   16   57 1
    60   17   58 1
    61   18   59 1
    62   19   60 1
    63   19   61 1
    64   19   62 1
    65   20   63 1
    66   20   64 1
    67   20   65 1
    68   21   66 1
    69   21   67 1
    70   22   68 1
    71   22   69 1
    72   23   70 1
    73   23   71 1
    74   24   72 1
    75   24   73 1
    76   25   74 1
    77   25   75 1
    78   26   76 1
    79   26   77 1
    80   27   78 1
    81   28   79 1
    82   29   80 1
    83   30   81 1
    84   32   82 1
    85   32   83 1
    86   33   84 1
    87   33   85 1
    88   34   86 1
    89   35   87 1
    90   36   88 1
    91   40   89 1
    92   41   90 1
    93   42   91 1
    94   43   92 1
@<TRIPOS>MOLECULE
1a2c_ligand_129
   92    94     0     0     0
SMALL
USER_CHARGES

mmff94s_NoEstat = 111.54
@<TRIPOS>ATOM
      1 C1         -8.0152   -3.5356   -3.3577 C.ar      1 <0>        -0.0708
      2 C2         -6.2456   -2.9590   -4.8981 C.ar      1 <0>        -0.0872
      3 C3         -8.8774   -3.7579   -4.4314 C.ar      1 <0>        -0.2241
      4 C4         -7.1078   -3.1813   -5.9718 C.ar      1 <0>        -0.1600
      5 C5         -6.7109   -3.1392   -3.6054 C.ar      1 <0>        -0.1356
      6 C6         -8.4237   -3.5808   -5.7385 C.ar      1 <0>         0.1290
      7 C7         -0.1674   -1.0853   -0.0424 C.2       1 <0>         0.6664
      8 C8         -2.5997   -3.1326    0.7250 C.2       1 <0>         0.6651
      9 C9         -4.5933   -1.1215   -1.1219 C.2       1 <0>         0.6454
     10 C10         2.6362    6.1435    0.7347 C.cat     1 <0>         0.6349
     11 C11         2.0445   -3.7524    0.2047 C.3       1 <0>        -0.0642
     12 C12         2.1951   -5.1517   -0.3975 C.3       1 <0>        -0.0747
     13 C13         0.7864   -2.3272    1.9103 C.3       1 <0>        -0.0873
     14 C14        -0.3466   -4.9962   -0.4055 C.3       1 <0>        -0.1371
     15 C15        -0.4770   -1.8334    1.2187 C.3       1 <0>         0.0360
     16 C16         1.0305   -3.7327    1.3503 C.3       1 <0>        -0.0720
     17 C17        -0.3661   -4.2312    0.9284 C.3       1 <0>         0.1201
     18 C18         0.8694   -5.9135   -0.5141 C.3       1 <0>         0.1453
     19 C19        -5.9631   -0.4404    1.7581 C.3       1 <0>        -0.0968
     20 C20        -3.8887    0.7550    2.4841 C.3       1 <0>        -0.0986
     21 C21        -5.7773   -2.8992   -2.4430 C.3       1 <0>        -0.0191
     22 C22         1.3330    3.4344   -1.5576 C.3       1 <0>        -0.1009
     23 C23         0.9718    2.4190   -0.4671 C.3       1 <0>        -0.0942
     24 C24        -3.8619   -1.7555    2.3678 C.3       1 <0>        -0.0988
     25 C25         1.3683    4.8545   -0.9971 C.3       1 <0>         0.1966
     26 C26         2.3035    0.4585   -1.4784 C.3       1 <0>         0.1128
     27 C27        -3.3800   -1.8574    0.9254 C.3       1 <0>         0.0786
     28 C28        -5.8260   -1.4472   -1.9560 C.3       1 <0>         0.0744
     29 C29        -4.7285   -0.5135    2.6578 C.3       1 <0>        -0.0678
     30 C30         0.9627    0.9465   -0.9241 C.3       1 <0>         0.1065
     31 N1         -1.2224   -3.0398    0.8850 N.am      1 <0>        -0.4315
     32 N2          3.6003    6.1873    1.7364 N.pl3     1 <0>        -0.8671
     33 N3          1.9387    7.3031    0.4138 N.pl3     1 <0>        -0.8581
     34 N4          0.5562    0.0753    0.1551 N.am      1 <0>        -0.5687
     35 N5         -4.4491   -1.9660   -0.0233 N.am      1 <0>        -0.5746
     36 N6          2.3605    4.9488    0.0473 N.pl3     1 <0>        -0.7533
     37 O1         -0.5544   -1.5275   -1.1177 O.2       1 <0>        -0.5843
     38 O2         -3.1933   -4.1752    0.4418 O.2       1 <0>        -0.6812
     39 O3         -3.8320   -0.1982   -1.4017 O.2       1 <0>        -0.5788
     40 O4         -9.2646   -3.7993   -6.7862 O.3       1 <0>        -0.4938
     41 O5          0.7872   -6.8901    0.5248 O.3       1 <0>        -0.6030
     42 O6          3.3063    0.5601   -0.4760 O.3       1 <0>        -0.5860
     43 O7         -6.9746   -1.2727   -1.1388 O.3       1 <0>        -0.6021
     44 H1         -8.3778   -3.6760   -2.3430 H         1 <0>         0.1412
     45 H2         -5.2218   -2.6482   -5.0894 H         1 <0>         0.1451
     46 H3         -9.9012   -4.0691   -4.2431 H         1 <0>         0.1336
     47 H4         -6.7482   -3.0425   -6.9880 H         1 <0>         0.1567
     48 H5          3.0220   -3.4003    0.5555 H         1 <0>         0.0649
     49 H6          1.7363   -3.0584   -0.5866 H         1 <0>         0.0476
     50 H7          2.6388   -5.0399   -1.3944 H         1 <0>         0.0641
     51 H8          2.9088   -5.7297    0.2024 H         1 <0>         0.0484
     52 H9          1.6439   -1.6583    1.7836 H         1 <0>         0.0596
     53 H10         0.5887   -2.4119    2.9867 H         1 <0>         0.0757
     54 H11        -1.2632   -5.5927   -0.4872 H         1 <0>         0.0782
     55 H12        -0.3526   -4.2949   -1.2498 H         1 <0>         0.0812
     56 H13        -1.0651   -1.1731    1.8629 H         1 <0>         0.0731
     57 H14         1.4245   -4.3763    2.1480 H         1 <0>         0.0511
     58 H15        -0.7725   -4.8823    1.7135 H         1 <0>         0.0753
     59 H16         0.8433   -6.4624   -1.4612 H         1 <0>         0.0427
     60 H17        -6.5181    0.4873    1.9352 H         1 <0>         0.0450
     61 H18        -6.6497   -1.2692    1.9547 H         1 <0>         0.0406
     62 H19        -5.6850   -0.4702    0.6992 H         1 <0>         0.0274
     63 H20        -3.5277    0.8553    1.4548 H         1 <0>         0.0476
     64 H21        -4.4764    1.6472    2.7254 H         1 <0>         0.0170
     65 H22        -3.0188    0.7404    3.1493 H         1 <0>         0.0477
     66 H23        -4.7539   -3.1614   -2.7431 H         1 <0>         0.0814
     67 H24        -6.0412   -3.5973   -1.6386 H         1 <0>         0.0685
     68 H25         2.3127    3.1949   -1.9871 H         1 <0>         0.1016
     69 H26         0.6063    3.3858   -2.3774 H         1 <0>         0.0660
     70 H27        -0.0191    2.6679   -0.0634 H         1 <0>         0.0512
     71 H28         1.6731    2.5296    0.3700 H         1 <0>         0.0454
     72 H29        -2.9928   -1.7573    3.0396 H         1 <0>         0.0575
     73 H30        -4.4407   -2.6540    2.6237 H         1 <0>         0.0743
     74 H31         0.3896    5.1258   -0.5875 H         1 <0>         0.0662
     75 H32         1.6115    5.5729   -1.7867 H         1 <0>         0.0622
     76 H33         2.6215    1.0387   -2.3510 H         1 <0>         0.0321
     77 H34         2.2342   -0.5935   -1.7781 H         1 <0>         0.0204
     78 H35        -2.7366   -1.0282    0.6336 H         1 <0>         0.0749
     79 H36        -5.8899   -0.7426   -2.7936 H         1 <0>         0.0719
     80 H37        -5.0656   -0.5471    3.7011 H         1 <0>         0.0609
     81 H38         0.2159    0.8710   -1.7251 H         1 <0>         0.1063
     82 H39         4.1331    5.3647    2.0059 H         1 <0>         0.4792
     83 H40         3.7983    7.0527    2.2335 H         1 <0>         0.4819
     84 H41         1.2273    7.3064   -0.3131 H         1 <0>         0.4802
     85 H42         2.1226    8.1789    0.8973 H         1 <0>         0.4826
     86 H43         0.8147    0.3282    1.1041 H         1 <0>         0.3101
     87 H44        -5.1428   -2.7027    0.1135 H         1 <0>         0.3087
     88 H45         2.9048    4.1228    0.3243 H         1 <0>         0.4846
     89 H46       -10.1751   -3.5710   -6.5400 H         1 <0>         0.4194
     90 H47         1.3049   -6.5470    1.2701 H         1 <0>         0.4036
     91 H48         3.5968    1.4864   -0.4636 H         1 <0>         0.4114
     92 H49        -7.5575   -2.0309   -1.3076 H         1 <0>         0.3944
@<TRIPOS>BOND
     1    1    3 ar
     2    1    5 ar
     3    2    4 ar
     4    2    5 ar
     5    3    6 ar
     6    4    6 ar
     7    5   21 1
     8    6   40 1
     9    7   15 1
    10    7   34 am
    11    7   37 2
    12    8   27 1
    13    8   31 am
    14    8   38 2
    15    9   28 1
    16    9   35 am
    17    9   39 2
    18   10   32 1
    19   10   33 1
    20   10   36 1
    21   11   12 1
    22   11   16 1
    23   12   18 1
    24   13   15 1
    25   13   16 1
    26   14   17 1
    27   14   18 1
    28   15   31 1
    29   16   17 1
    30   17   31 1
    31   18   41 1
    32   19   29 1
    33   20   29 1
    34   21   28 1
    35   22   23 1
    36   22   25 1
    37   23   30 1
    38   24   27 1
    39   24   29 1
    40   25   36 1
    41   26   30 1
    42   26   42 1
    43   27   35 1
    44   28   43 1
    45   30   34 1
    46    1   44 1
    47    2   45 1
    48    3   46 1
    49    4   47 1
    50   11   48 1
    51   11   49 1
    52   12   50 1
    53   12   51 1
    54   13   52 1
    55   13   53 1
    56   14   54 1
    57   14   55 1
    58   15   56 1
    59   16   57 1
    60   17   58 1
    61   18   59 1
    62   19   60 1
    63   19   61 1
    64   19   62 1
    65   20   63 1
    66   20   64 1
    67   20   65 1
    68   21   66 1
    69   21   67 1
    70   22   68 1
    71   22   69 1
    72   23   70 1
    73   23   71 1
    74   24   72 1
    75   24   73 1
    76   25   74 1
    77   25   75 1
    78   26   76 1
    79   26   77 1
    80   27   78 1
    81   28   79 1
    82   29   80 1
    83   30   81 1
    84   32   82 1
    85   32   83 1
    86   33   84 1
    87   33   85 1
    88   34   86 1
    89   35   87 1
    90   36   88 1
    91   40   89 1
    92   41   90 1
    93   42   91 1
    94   43   92 1
@<TRIPOS>MOLECULE
1a2c_ligand_130
   92    94     0     0     0
SMALL
USER_CHARGES

mmff94s_NoEstat = 111.76
@<TRIPOS>ATOM
      1 C1          9.6781   -0.8835    4.6459 C.ar      1 <0>        -0.0708
      2 C2          8.0683    0.3374    5.9707 C.ar      1 <0>        -0.0872
      3 C3         10.6899   -0.0331    5.0917 C.ar      1 <0>        -0.2241
      4 C4          9.0801    1.1878    6.4165 C.ar      1 <0>        -0.1600
      5 C5          8.3809   -0.6869    5.0914 C.ar      1 <0>        -0.1356
      6 C6         10.3909    1.0026    5.9770 C.ar      1 <0>         0.1290
      7 C7          0.1755   -1.0766    0.1327 C.2       1 <0>         0.6664
      8 C8          2.3785   -0.9757    2.2764 C.2       1 <0>         0.6651
      9 C9          5.2695   -1.7615    3.1198 C.2       1 <0>         0.6454
     10 C10         1.1703    3.8036   -0.2201 C.cat     1 <0>         0.6349
     11 C11         2.4521   -5.3069   -0.2561 C.3       1 <0>        -0.0642
     12 C12         1.2413   -5.9691    0.3982 C.3       1 <0>        -0.0747
     13 C13         1.5734   -2.9393   -0.7647 C.3       1 <0>        -0.0873
     14 C14         1.0938   -4.1277    2.1072 C.3       1 <0>        -0.1371
     15 C15         1.5650   -1.6216    0.0133 C.3       1 <0>         0.0360
     16 C16         2.5597   -3.8106    0.0203 C.3       1 <0>        -0.0720
     17 C17         2.2934   -3.4012    1.4755 C.3       1 <0>         0.1201
     18 C18         1.1411   -5.6363    1.8853 C.3       1 <0>         0.1453
     19 C19         3.8896   -0.8379    6.4377 C.3       1 <0>        -0.0968
     20 C20         2.2599   -2.7349    6.3694 C.3       1 <0>        -0.0986
     21 C21         7.2857   -1.6080    4.6093 C.3       1 <0>        -0.0191
     22 C22        -0.8155    2.0502   -2.2095 C.3       1 <0>        -0.1009
     23 C23        -1.7941    0.8762   -2.3301 C.3       1 <0>        -0.0942
     24 C24         1.9925   -0.8489    4.7298 C.3       1 <0>        -0.0988
     25 C25        -1.0238    2.8078   -0.9000 C.3       1 <0>         0.1966
     26 C26        -2.7214   -1.3050   -1.3187 C.3       1 <0>         0.1128
     27 C27         2.8496   -1.4560    3.6253 C.3       1 <0>         0.0786
     28 C28         6.6222   -1.0920    3.3282 C.3       1 <0>         0.0744
     29 C29         2.4383   -1.2292    6.1562 C.3       1 <0>        -0.0678
     30 C30        -1.7203   -0.1547   -1.1858 C.3       1 <0>         0.1065
     31 N1          2.0322   -1.9586    1.3590 N.am      1 <0>        -0.4315
     32 N2          2.0308    4.8950   -0.1632 N.pl3     1 <0>        -0.8671
     33 N3          1.5780    2.5898    0.3226 N.pl3     1 <0>        -0.8581
     34 N4         -0.3878   -0.7030   -1.0725 N.am      1 <0>        -0.5687
     35 N5          4.2184   -1.0331    3.6724 N.am      1 <0>        -0.5746
     36 N6         -0.0983    3.9125   -0.8157 N.pl3     1 <0>        -0.7533
     37 O1         -0.3509   -1.0007    1.2367 O.2       1 <0>        -0.5843
     38 O2          2.3230    0.2335    2.0409 O.2       1 <0>        -0.6812
     39 O3          5.1476   -2.8360    2.5359 O.2       1 <0>        -0.5788
     40 O4         11.3785    1.8314    6.4133 O.3       1 <0>        -0.4938
     41 O5          2.2611   -6.1715    2.5852 O.3       1 <0>        -0.6030
     42 O6         -2.4752   -2.0231   -2.5206 O.3       1 <0>        -0.5860
     43 O7          7.4509   -1.4094    2.2191 O.3       1 <0>        -0.6021
     44 H1          9.9207   -1.6873    3.9562 H         1 <0>         0.1412
     45 H2          7.0498    0.4890    6.3187 H         1 <0>         0.1451
     46 H3         11.7089   -0.1826    4.7459 H         1 <0>         0.1336
     47 H4          8.8410    1.9923    7.1070 H         1 <0>         0.1567
     48 H5          3.3605   -5.7937    0.1218 H         1 <0>         0.0649
     49 H6          2.4319   -5.4897   -1.3370 H         1 <0>         0.0476
     50 H7          0.3241   -5.6545   -0.1129 H         1 <0>         0.0641
     51 H8          1.3294   -7.0545    0.2691 H         1 <0>         0.0484
     52 H9          0.5754   -3.3919   -0.8000 H         1 <0>         0.0596
     53 H10         1.8977   -2.7914   -1.8003 H         1 <0>         0.0757
     54 H11         1.0807   -3.9085    3.1823 H         1 <0>         0.0782
     55 H12         0.1523   -3.7376    1.7002 H         1 <0>         0.0812
     56 H13         2.2202   -0.8626   -0.4249 H         1 <0>         0.0731
     57 H14         3.5726   -3.4842   -0.2571 H         1 <0>         0.0511
     58 H15         3.1875   -3.5701    2.0864 H         1 <0>         0.0753
     59 H16         0.2435   -6.1003    2.3075 H         1 <0>         0.0427
     60 H17         4.2001   -1.1859    7.4289 H         1 <0>         0.0450
     61 H18         4.0203    0.2482    6.4220 H         1 <0>         0.0406
     62 H19         4.5693   -1.2752    5.6986 H         1 <0>         0.0274
     63 H20         2.8852   -3.3113    5.6789 H         1 <0>         0.0476
     64 H21         2.5335   -3.0185    7.3913 H         1 <0>         0.0170
     65 H22         1.2173   -3.0301    6.2104 H         1 <0>         0.0477
     66 H23         6.5349   -1.7208    5.4029 H         1 <0>         0.0814
     67 H24         7.7154   -2.6065    4.4600 H         1 <0>         0.0685
     68 H25         0.2178    1.6866   -2.2519 H         1 <0>         0.1016
     69 H26        -0.9442    2.7400   -3.0523 H         1 <0>         0.0660
     70 H27        -1.6130    0.3584   -3.2819 H         1 <0>         0.0512
     71 H28        -2.8171    1.2691   -2.3922 H         1 <0>         0.0454
     72 H29         0.9469   -1.1516    4.5828 H         1 <0>         0.0575
     73 H30         2.0032    0.2464    4.6399 H         1 <0>         0.0743
     74 H31        -0.8652    2.1409   -0.0459 H         1 <0>         0.0662
     75 H32        -2.0467    3.1933   -0.8380 H         1 <0>         0.0622
     76 H33        -3.7565   -0.9478   -1.3308 H         1 <0>         0.0321
     77 H34        -2.6144   -2.0048   -0.4820 H         1 <0>         0.0204
     78 H35         2.8203   -2.5449    3.6159 H         1 <0>         0.0749
     79 H36         6.4849   -0.0045    3.3546 H         1 <0>         0.0719
     80 H37         1.7968   -0.7138    6.8816 H         1 <0>         0.0609
     81 H38        -1.9472    0.3883   -0.2591 H         1 <0>         0.1063
     82 H39         1.7764    5.8007   -0.5483 H         1 <0>         0.4792
     83 H40         2.9489    4.8145    0.2676 H         1 <0>         0.4819
     84 H41         0.9740    1.7718    0.2980 H         1 <0>         0.4802
     85 H42         2.4910    2.4885    0.7594 H         1 <0>         0.4826
     86 H43         0.1607   -0.8193   -1.9192 H         1 <0>         0.3101
     87 H44         4.4349   -0.1495    4.1364 H         1 <0>         0.3087
     88 H45        -0.3483    4.8315   -1.2005 H         1 <0>         0.4846
     89 H46        12.0516    1.9448    5.7234 H         1 <0>         0.4194
     90 H47         2.7873   -5.4145    2.8873 H         1 <0>         0.4036
     91 H48        -2.8906   -1.5183   -3.2383 H         1 <0>         0.4114
     92 H49         8.3251   -1.6348    2.5769 H         1 <0>         0.3944
@<TRIPOS>BOND
     1    1    3 ar
     2    1    5 ar
     3    2    4 ar
     4    2    5 ar
     5    3    6 ar
     6    4    6 ar
     7    5   21 1
     8    6   40 1
     9    7   15 1
    10    7   34 am
    11    7   37 2
    12    8   27 1
    13    8   31 am
    14    8   38 2
    15    9   28 1
    16    9   35 am
    17    9   39 2
    18   10   32 1
    19   10   33 1
    20   10   36 1
    21   11   12 1
    22   11   16 1
    23   12   18 1
    24   13   15 1
    25   13   16 1
    26   14   17 1
    27   14   18 1
    28   15   31 1
    29   16   17 1
    30   17   31 1
    31   18   41 1
    32   19   29 1
    33   20   29 1
    34   21   28 1
    35   22   23 1
    36   22   25 1
    37   23   30 1
    38   24   27 1
    39   24   29 1
    40   25   36 1
    41   26   30 1
    42   26   42 1
    43   27   35 1
    44   28   43 1
    45   30   34 1
    46    1   44 1
    47    2   45 1
    48    3   46 1
    49    4   47 1
    50   11   48 1
    51   11   49 1
    52   12   50 1
    53   12   51 1
    54   13   52 1
    55   13   53 1
    56   14   54 1
    57   14   55 1
    58   15   56 1
    59   16   57 1
    60   17   58 1
    61   18   59 1
    62   19   60 1
    63   19   61 1
    64   19   62 1
    65   20   63 1
    66   20   64 1
    67   20   65 1
    68   21   66 1
    69   21   67 1
    70   22   68 1
    71   22   69 1
    72   23   70 1
    73   23   71 1
    74   24   72 1
    75   24   73 1
    76   25   74 1
    77   25   75 1
    78   26   76 1
    79   26   77 1
    80   27   78 1
    81   28   79 1
    82   29   80 1
    83   30   81 1
    84   32   82 1
    85   32   83 1
    86   33   84 1
    87   33   85 1
    88   34   86 1
    89   35   87 1
    90   36   88 1
    91   40   89 1
    92   41   90 1
    93   42   91 1
    94   43   92 1
@<TRIPOS>MOLECULE
1a2c_ligand_131
   92    94     0     0     0
SMALL
USER_CHARGES

mmff94s_NoEstat = 111.76
@<TRIPOS>ATOM
      1 C1          8.7543    1.2597    2.9884 C.ar      1 <0>        -0.0708
      2 C2          9.0296   -0.6325    1.5115 C.ar      1 <0>        -0.0872
      3 C3         10.0864    1.6167    2.7793 C.ar      1 <0>        -0.2241
      4 C4         10.3616   -0.2755    1.3024 C.ar      1 <0>        -0.1600
      5 C5          8.2437    0.1400    2.3517 C.ar      1 <0>        -0.1356
      6 C6         10.8901    0.8491    1.9363 C.ar      1 <0>         0.1290
      7 C7          0.1755   -1.0766    0.1327 C.2       1 <0>         0.6664
      8 C8          2.3785   -0.9757    2.2764 C.2       1 <0>         0.6651
      9 C9          5.2968   -1.9145    3.7000 C.2       1 <0>         0.6454
     10 C10        -2.2164    5.8593    0.9108 C.cat     1 <0>         0.6349
     11 C11         2.4521   -5.3069   -0.2561 C.3       1 <0>        -0.0642
     12 C12         1.2413   -5.9691    0.3982 C.3       1 <0>        -0.0747
     13 C13         1.5734   -2.9393   -0.7647 C.3       1 <0>        -0.0873
     14 C14         1.0938   -4.1277    2.1072 C.3       1 <0>        -0.1371
     15 C15         1.5650   -1.6216    0.0133 C.3       1 <0>         0.0360
     16 C16         2.5597   -3.8106    0.0203 C.3       1 <0>        -0.0720
     17 C17         2.2934   -3.4012    1.4755 C.3       1 <0>         0.1201
     18 C18         1.1411   -5.6363    1.8853 C.3       1 <0>         0.1453
     19 C19         3.8896   -0.8379    6.4377 C.3       1 <0>        -0.0968
     20 C20         2.2599   -2.7349    6.3694 C.3       1 <0>        -0.0986
     21 C21         6.8014   -0.2461    2.5776 C.3       1 <0>        -0.0191
     22 C22        -0.6430    2.4326    0.6399 C.3       1 <0>        -0.1009
     23 C23        -1.2979    2.0260   -0.6854 C.3       1 <0>        -0.0942
     24 C24         1.9925   -0.8489    4.7298 C.3       1 <0>        -0.0988
     25 C25        -0.5996    3.9518    0.7888 C.3       1 <0>         0.1966
     26 C26        -2.1127    0.1273   -2.2253 C.3       1 <0>         0.1128
     27 C27         2.8496   -1.4560    3.6253 C.3       1 <0>         0.0786
     28 C28         6.6400   -1.1984    3.7670 C.3       1 <0>         0.0744
     29 C29         2.4383   -1.2292    6.1562 C.3       1 <0>        -0.0678
     30 C30        -1.4370    0.5062   -0.9051 C.3       1 <0>         0.1065
     31 N1          2.0322   -1.9586    1.3590 N.am      1 <0>        -0.4315
     32 N2         -3.5242    6.3323    0.8841 N.pl3     1 <0>        -0.8671
     33 N3         -1.1723    6.7622    1.0802 N.pl3     1 <0>        -0.8581
     34 N4         -0.1481   -0.1440   -0.8342 N.am      1 <0>        -0.5687
     35 N5          4.2184   -1.0331    3.6724 N.am      1 <0>        -0.5746
     36 N6         -1.9396    4.4885    0.7697 N.pl3     1 <0>        -0.7533
     37 O1         -0.5534   -1.4727    1.0347 O.2       1 <0>        -0.5843
     38 O2          2.3230    0.2335    2.0409 O.2       1 <0>        -0.6812
     39 O3          5.2019   -3.1398    3.6875 O.2       1 <0>        -0.5788
     40 O4         12.1895    1.1984    1.7309 O.3       1 <0>        -0.4938
     41 O5          2.2611   -6.1715    2.5852 O.3       1 <0>        -0.6030
     42 O6         -1.3491    0.6212   -3.3179 O.3       1 <0>        -0.5860
     43 O7          6.6827   -0.4452    4.9705 O.3       1 <0>        -0.6021
     44 H1          8.1360    1.8636    3.6469 H         1 <0>         0.1412
     45 H2          8.6262   -1.5102    1.0132 H         1 <0>         0.1451
     46 H3         10.4921    2.4937    3.2757 H         1 <0>         0.1336
     47 H4         10.9825   -0.8770    0.6437 H         1 <0>         0.1567
     48 H5          3.3605   -5.7937    0.1218 H         1 <0>         0.0649
     49 H6          2.4319   -5.4897   -1.3370 H         1 <0>         0.0476
     50 H7          0.3241   -5.6545   -0.1129 H         1 <0>         0.0641
     51 H8          1.3294   -7.0545    0.2691 H         1 <0>         0.0484
     52 H9          0.5754   -3.3919   -0.8000 H         1 <0>         0.0596
     53 H10         1.8977   -2.7914   -1.8003 H         1 <0>         0.0757
     54 H11         1.0807   -3.9085    3.1823 H         1 <0>         0.0782
     55 H12         0.1523   -3.7376    1.7002 H         1 <0>         0.0812
     56 H13         2.2202   -0.8626   -0.4249 H         1 <0>         0.0731
     57 H14         3.5726   -3.4842   -0.2571 H         1 <0>         0.0511
     58 H15         3.1875   -3.5701    2.0864 H         1 <0>         0.0753
     59 H16         0.2435   -6.1003    2.3075 H         1 <0>         0.0427
     60 H17         4.2001   -1.1859    7.4289 H         1 <0>         0.0450
     61 H18         4.0203    0.2482    6.4220 H         1 <0>         0.0406
     62 H19         4.5693   -1.2752    5.6986 H         1 <0>         0.0274
     63 H20         2.8852   -3.3113    5.6789 H         1 <0>         0.0476
     64 H21         2.5335   -3.0185    7.3913 H         1 <0>         0.0170
     65 H22         1.2173   -3.0301    6.2104 H         1 <0>         0.0477
     66 H23         6.4066   -0.7130    1.6653 H         1 <0>         0.0814
     67 H24         6.2170    0.6714    2.7209 H         1 <0>         0.0685
     68 H25        -1.1995    2.0063    1.4826 H         1 <0>         0.1016
     69 H26         0.3766    2.0329    0.6979 H         1 <0>         0.0660
     70 H27        -0.7150    2.4492   -1.5148 H         1 <0>         0.0512
     71 H28        -2.2909    2.4892   -0.7497 H         1 <0>         0.0454
     72 H29         0.9469   -1.1516    4.5828 H         1 <0>         0.0575
     73 H30         2.0032    0.2464    4.6399 H         1 <0>         0.0743
     74 H31        -0.0230    4.3974   -0.0287 H         1 <0>         0.0662
     75 H32        -0.1161    4.2315    1.7305 H         1 <0>         0.0622
     76 H33        -3.1276    0.5322   -2.2969 H         1 <0>         0.0321
     77 H34        -2.1750   -0.9624   -2.3250 H         1 <0>         0.0204
     78 H35         2.8203   -2.5449    3.6159 H         1 <0>         0.0749
     79 H36         7.4436   -1.9436    3.7993 H         1 <0>         0.0719
     80 H37         1.7968   -0.7138    6.8816 H         1 <0>         0.0609
     81 H38        -2.0581    0.1260   -0.0837 H         1 <0>         0.1063
     82 H39        -4.3184    5.7100    0.7607 H         1 <0>         0.4792
     83 H40        -3.7230    7.3249    0.9858 H         1 <0>         0.4819
     84 H41        -0.2044    6.4505    1.1043 H         1 <0>         0.4802
     85 H42        -1.3494    7.7583    1.1855 H         1 <0>         0.4826
     86 H43         0.5534    0.0962   -1.5282 H         1 <0>         0.3101
     87 H44         4.4137   -0.0309    3.6864 H         1 <0>         0.3087
     88 H45        -2.7477    3.8663    0.6475 H         1 <0>         0.4846
     89 H46        12.5567    1.6117    2.5285 H         1 <0>         0.4194
     90 H47         2.7873   -5.4145    2.8873 H         1 <0>         0.4036
     91 H48        -1.5776    1.5595   -3.4176 H         1 <0>         0.4114
     92 H49         7.0545    0.4233    4.7455 H         1 <0>         0.3944
@<TRIPOS>BOND
     1    1    3 ar
     2    1    5 ar
     3    2    4 ar
     4    2    5 ar
     5    3    6 ar
     6    4    6 ar
     7    5   21 1
     8    6   40 1
     9    7   15 1
    10    7   34 am
    11    7   37 2
    12    8   27 1
    13    8   31 am
    14    8   38 2
    15    9   28 1
    16    9   35 am
    17    9   39 2
    18   10   32 1
    19   10   33 1
    20   10   36 1
    21   11   12 1
    22   11   16 1
    23   12   18 1
    24   13   15 1
    25   13   16 1
    26   14   17 1
    27   14   18 1
    28   15   31 1
    29   16   17 1
    30   17   31 1
    31   18   41 1
    32   19   29 1
    33   20   29 1
    34   21   28 1
    35   22   23 1
    36   22   25 1
    37   23   30 1
    38   24   27 1
    39   24   29 1
    40   25   36 1
    41   26   30 1
    42   26   42 1
    43   27   35 1
    44   28   43 1
    45   30   34 1
    46    1   44 1
    47    2   45 1
    48    3   46 1
    49    4   47 1
    50   11   48 1
    51   11   49 1
    52   12   50 1
    53   12   51 1
    54   13   52 1
    55   13   53 1
    56   14   54 1
    57   14   55 1
    58   15   56 1
    59   16   57 1
    60   17   58 1
    61   18   59 1
    62   19   60 1
    63   19   61 1
    64   19   62 1
    65   20   63 1
    66   20   64 1
    67   20   65 1
    68   21   66 1
    69   21   67 1
    70   22   68 1
    71   22   69 1
    72   23   70 1
    73   23   71 1
    74   24   72 1
    75   24   73 1
    76   25   74 1
    77   25   75 1
    78   26   76 1
    79   26   77 1
    80   27   78 1
    81   28   79 1
    82   29   80 1
    83   30   81 1
    84   32   82 1
    85   32   83 1
    86   33   84 1
    87   33   85 1
    88   34   86 1
    89   35   87 1
    90   36   88 1
    91   40   89 1
    92   41   90 1
    93   42   91 1
    94   43   92 1
@<TRIPOS>MOLECULE
1a2c_ligand_132
   92    94     0     0     0
SMALL
USER_CHARGES

mmff94s_NoEstat = 111.80
@<TRIPOS>ATOM
      1 C1         -8.6272   -2.8492   -1.4308 C.ar      1 <0>        -0.0708
      2 C2         -8.6280   -2.4747    0.9560 C.ar      1 <0>        -0.0872
      3 C3         -9.9370   -3.3232   -1.3568 C.ar      1 <0>        -0.2241
      4 C4         -9.9377   -2.9488    1.0300 C.ar      1 <0>        -0.1600
      5 C5         -7.9904   -2.4312   -0.2734 C.ar      1 <0>        -0.1356
      6 C6        -10.5923   -3.3731   -0.1264 C.ar      1 <0>         0.1290
      7 C7         -0.0512   -1.0561    0.2993 C.2       1 <0>         0.6664
      8 C8         -1.8469   -3.0457    2.1630 C.2       1 <0>         0.6651
      9 C9         -4.1811   -2.4610    0.1870 C.2       1 <0>         0.6454
     10 C10        -4.9862    1.2774   -2.0360 C.cat     1 <0>         0.6349
     11 C11         2.5186   -3.1911    0.6823 C.3       1 <0>        -0.0642
     12 C12         2.4580   -4.6414    0.2376 C.3       1 <0>        -0.0747
     13 C13         1.4874   -1.4827    2.2418 C.3       1 <0>        -0.0873
     14 C14         0.4946   -5.0934    1.7133 C.3       1 <0>        -0.1371
     15 C15         0.0412   -1.4176    1.7503 C.3       1 <0>         0.0360
     16 C16         1.8865   -2.9529    2.0632 C.3       1 <0>        -0.0720
     17 C17         0.5665   -3.7001    2.3454 C.3       1 <0>         0.1201
     18 C18         1.0248   -5.1525    0.2868 C.3       1 <0>         0.1453
     19 C19        -5.3726   -0.5418    3.1302 C.3       1 <0>        -0.0968
     20 C20        -3.4397    1.0389    2.9738 C.3       1 <0>        -0.0986
     21 C21        -6.5727   -1.9173   -0.3536 C.3       1 <0>        -0.0191
     22 C22        -1.8968    1.7896   -1.0188 C.3       1 <0>        -0.1009
     23 C23        -0.4337    2.0012   -1.4250 C.3       1 <0>        -0.0942
     24 C24        -2.9973   -1.3585    3.5851 C.3       1 <0>        -0.0988
     25 C25        -2.5538    0.7074   -1.8729 C.3       1 <0>         0.1966
     26 C26         1.9058    0.9774   -1.7696 C.3       1 <0>         0.1128
     27 C27        -2.7865   -1.8644    2.1628 C.3       1 <0>         0.0786
     28 C28        -5.5432   -3.0384   -0.1771 C.3       1 <0>         0.0744
     29 C29        -3.9969   -0.1898    3.6979 C.3       1 <0>        -0.0678
     30 C30         0.4555    0.7445   -1.3388 C.3       1 <0>         0.1065
     31 N1         -0.4979   -2.7598    1.9615 N.am      1 <0>        -0.4315
     32 N2         -6.2999    1.0757   -1.6258 N.pl3     1 <0>        -0.8671
     33 N3         -4.7200    2.2299   -3.0137 N.pl3     1 <0>        -0.8581
     34 N4          0.4455    0.1980   -0.0008 N.am      1 <0>        -0.5687
     35 N5         -3.9799   -2.3853    1.5634 N.am      1 <0>        -0.5746
     36 N6         -3.9315    0.5347   -1.4776 N.pl3     1 <0>        -0.7533
     37 O1         -0.5362   -1.8555   -0.4928 O.2       1 <0>        -0.5843
     38 O2         -2.2998   -4.1783    2.3409 O.2       1 <0>        -0.6812
     39 O3         -3.3708   -2.0954   -0.6616 O.2       1 <0>        -0.5788
     40 O4        -11.8709   -3.8342   -0.0545 O.3       1 <0>        -0.4938
     41 O5          0.9879   -6.5072   -0.1510 O.3       1 <0>        -0.6030
     42 O6          1.9423    1.4367   -3.1144 O.3       1 <0>        -0.5860
     43 O7         -5.4138   -3.7436   -1.4033 O.3       1 <0>        -0.6021
     44 H1         -8.1249   -2.8142   -2.3937 H         1 <0>         0.1412
     45 H2         -8.1259   -2.1460    1.8623 H         1 <0>         0.1451
     46 H3        -10.4414   -3.6521   -2.2611 H         1 <0>         0.1336
     47 H4        -10.4433   -2.9843    1.9914 H         1 <0>         0.1567
     48 H5          3.5627   -2.8549    0.7003 H         1 <0>         0.0649
     49 H6          2.0259   -2.5829   -0.0837 H         1 <0>         0.0476
     50 H7          2.8567   -4.7427   -0.7790 H         1 <0>         0.0641
     51 H8          3.1032   -5.2618    0.8729 H         1 <0>         0.0484
     52 H9          2.1569   -0.7868    1.7257 H         1 <0>         0.0596
     53 H10         1.5124   -1.2395    3.3116 H         1 <0>         0.0757
     54 H11         1.0921   -5.7802    2.3299 H         1 <0>         0.0782
     55 H12        -0.5175   -5.5090    1.7393 H         1 <0>         0.0812
     56 H13        -0.5378   -0.6778    2.3126 H         1 <0>         0.0731
     57 H14         2.6304   -3.2407    2.8169 H         1 <0>         0.0511
     58 H15         0.4523   -3.8218    3.4319 H         1 <0>         0.0753
     59 H16         0.3841   -4.5700   -0.3844 H         1 <0>         0.0427
     60 H17        -6.0375    0.3284    3.1563 H         1 <0>         0.0450
     61 H18        -5.8542   -1.3328    3.7128 H         1 <0>         0.0406
     62 H19        -5.2988   -0.8789    2.0908 H         1 <0>         0.0274
     63 H20        -3.3028    0.8425    1.9049 H         1 <0>         0.0476
     64 H21        -4.1178    1.8926    3.0773 H         1 <0>         0.0170
     65 H22        -2.4708    1.3315    3.3922 H         1 <0>         0.0477
     66 H23        -6.4251   -1.1465    0.4146 H         1 <0>         0.0814
     67 H24        -6.4443   -1.4079   -1.3169 H         1 <0>         0.0685
     68 H25        -1.9576    1.4985    0.0363 H         1 <0>         0.1016
     69 H26        -2.4590    2.7253   -1.1230 H         1 <0>         0.0660
     70 H27         0.0021    2.7844   -0.7898 H         1 <0>         0.0512
     71 H28        -0.4008    2.3932   -2.4497 H         1 <0>         0.0454
     72 H29        -2.0302   -1.0518    4.0061 H         1 <0>         0.0575
     73 H30        -3.3514   -2.1846    4.2177 H         1 <0>         0.0743
     74 H31        -2.0246   -0.2439   -1.7539 H         1 <0>         0.0662
     75 H32        -2.5177    0.9801   -2.9326 H         1 <0>         0.0622
     76 H33         2.5067    0.0649   -1.6955 H         1 <0>         0.0321
     77 H34         2.3741    1.7433   -1.1408 H         1 <0>         0.0204
     78 H35        -2.3647   -1.1082    1.5019 H         1 <0>         0.0749
     79 H36        -5.8508   -3.7504    0.5980 H         1 <0>         0.0719
     80 H37        -4.1195    0.0762    4.7551 H         1 <0>         0.0609
     81 H38         0.0149    0.0012   -2.0158 H         1 <0>         0.1063
     82 H39        -6.5420    0.3895   -0.9160 H         1 <0>         0.4792
     83 H40        -7.0623    1.6136   -2.0313 H         1 <0>         0.4819
     84 H41        -3.7712    2.4028   -3.3369 H         1 <0>         0.4802
     85 H42        -5.4674    2.7796   -3.4307 H         1 <0>         0.4826
     86 H43         0.8216    0.7626    0.7549 H         1 <0>         0.3101
     87 H44        -4.7231   -2.7191    2.1790 H         1 <0>         0.3087
     88 H45        -4.1844   -0.1551   -0.7597 H         1 <0>         0.4846
     89 H46       -12.0198   -4.5188   -0.7260 H         1 <0>         0.4194
     90 H47         1.8515   -6.8926    0.0654 H         1 <0>         0.4036
     91 H48         1.8522    0.6531   -3.6803 H         1 <0>         0.4114
     92 H49        -6.1819   -3.5045   -1.9474 H         1 <0>         0.3944
@<TRIPOS>BOND
     1    1    3 ar
     2    1    5 ar
     3    2    4 ar
     4    2    5 ar
     5    3    6 ar
     6    4    6 ar
     7    5   21 1
     8    6   40 1
     9    7   15 1
    10    7   34 am
    11    7   37 2
    12    8   27 1
    13    8   31 am
    14    8   38 2
    15    9   28 1
    16    9   35 am
    17    9   39 2
    18   10   32 1
    19   10   33 1
    20   10   36 1
    21   11   12 1
    22   11   16 1
    23   12   18 1
    24   13   15 1
    25   13   16 1
    26   14   17 1
    27   14   18 1
    28   15   31 1
    29   16   17 1
    30   17   31 1
    31   18   41 1
    32   19   29 1
    33   20   29 1
    34   21   28 1
    35   22   23 1
    36   22   25 1
    37   23   30 1
    38   24   27 1
    39   24   29 1
    40   25   36 1
    41   26   30 1
    42   26   42 1
    43   27   35 1
    44   28   43 1
    45   30   34 1
    46    1   44 1
    47    2   45 1
    48    3   46 1
    49    4   47 1
    50   11   48 1
    51   11   49 1
    52   12   50 1
    53   12   51 1
    54   13   52 1
    55   13   53 1
    56   14   54 1
    57   14   55 1
    58   15   56 1
    59   16   57 1
    60   17   58 1
    61   18   59 1
    62   19   60 1
    63   19   61 1
    64   19   62 1
    65   20   63 1
    66   20   64 1
    67   20   65 1
    68   21   66 1
    69   21   67 1
    70   22   68 1
    71   22   69 1
    72   23   70 1
    73   23   71 1
    74   24   72 1
    75   24   73 1
    76   25   74 1
    77   25   75 1
    78   26   76 1
    79   26   77 1
    80   27   78 1
    81   28   79 1
    82   29   80 1
    83   30   81 1
    84   32   82 1
    85   32   83 1
    86   33   84 1
    87   33   85 1
    88   34   86 1
    89   35   87 1
    90   36   88 1
    91   40   89 1
    92   41   90 1
    93   42   91 1
    94   43   92 1
@<TRIPOS>MOLECULE
1a2c_ligand_133
   92    94     0     0     0
SMALL
USER_CHARGES

mmff94s_NoEstat = 111.88
@<TRIPOS>ATOM
      1 C1         -8.4879   -2.9369   -1.0341 C.ar      1 <0>        -0.0708
      2 C2         -6.7267   -1.4623   -1.7830 C.ar      1 <0>        -0.0872
      3 C3         -9.3527   -1.8480   -0.9241 C.ar      1 <0>        -0.2241
      4 C4         -7.5915   -0.3735   -1.6730 C.ar      1 <0>        -0.1600
      5 C5         -7.1865   -2.7294   -1.4621 C.ar      1 <0>        -0.1356
      6 C6         -8.9045   -0.5663   -1.2435 C.ar      1 <0>         0.1290
      7 C7         -0.0512   -1.0561    0.2993 C.2       1 <0>         0.6664
      8 C8         -1.8469   -3.0457    2.1630 C.2       1 <0>         0.6651
      9 C9         -4.2799   -3.2353   -0.1780 C.2       1 <0>         0.6454
     10 C10        -1.1899    6.6671    0.2562 C.cat     1 <0>         0.6349
     11 C11         2.5186   -3.1911    0.6823 C.3       1 <0>        -0.0642
     12 C12         2.4580   -4.6414    0.2376 C.3       1 <0>        -0.0747
     13 C13         1.4874   -1.4827    2.2418 C.3       1 <0>        -0.0873
     14 C14         0.4946   -5.0934    1.7133 C.3       1 <0>        -0.1371
     15 C15         0.0412   -1.4176    1.7503 C.3       1 <0>         0.0360
     16 C16         1.8865   -2.9529    2.0632 C.3       1 <0>        -0.0720
     17 C17         0.5665   -3.7001    2.3454 C.3       1 <0>         0.1201
     18 C18         1.0248   -5.1525    0.2868 C.3       1 <0>         0.1453
     19 C19        -5.5746   -0.7475    1.4860 C.3       1 <0>        -0.0968
     20 C20        -3.7112    0.7464    0.7408 C.3       1 <0>        -0.0986
     21 C21        -6.2505   -3.9084   -1.5819 C.3       1 <0>        -0.0191
     22 C22         0.0133    3.1737   -0.5440 C.3       1 <0>        -0.1009
     23 C23        -0.4337    2.0012   -1.4250 C.3       1 <0>        -0.0942
     24 C24        -3.2372   -1.0062    2.4788 C.3       1 <0>        -0.0988
     25 C25        -0.9571    4.3475   -0.6564 C.3       1 <0>         0.1966
     26 C26         1.9058    0.9774   -1.7696 C.3       1 <0>         0.1128
     27 C27        -2.8325   -2.1090    1.5076 C.3       1 <0>         0.0786
     28 C28        -5.4811   -4.1668   -0.2823 C.3       1 <0>         0.0744
     29 C29        -4.2955   -0.0321    1.9228 C.3       1 <0>        -0.0678
     30 C30         0.4555    0.7445   -1.3388 C.3       1 <0>         0.1065
     31 N1         -0.4979   -2.7598    1.9615 N.am      1 <0>        -0.4315
     32 N2         -0.7222    7.6923    1.0718 N.pl3     1 <0>        -0.8671
     33 N3         -2.3492    6.8663   -0.4857 N.pl3     1 <0>        -0.8581
     34 N4          0.4455    0.1980   -0.0008 N.am      1 <0>        -0.5687
     35 N5         -3.9193   -2.9688    1.1410 N.am      1 <0>        -0.5746
     36 N6         -0.5089    5.4402    0.1737 N.pl3     1 <0>        -0.7533
     37 O1         -0.5362   -1.8555   -0.4928 O.2       1 <0>        -0.5843
     38 O2         -2.2659   -3.9924    2.8322 O.2       1 <0>        -0.6812
     39 O3         -3.7165   -2.7712   -1.1667 O.2       1 <0>        -0.5788
     40 O4         -9.7489    0.4960   -1.1377 O.3       1 <0>        -0.4938
     41 O5          0.9879   -6.5072   -0.1510 O.3       1 <0>        -0.6030
     42 O6          2.6391   -0.2366   -1.6731 O.3       1 <0>        -0.5860
     43 O7         -5.0067   -5.5055   -0.2851 O.3       1 <0>        -0.6021
     44 H1         -8.8460   -3.9315   -0.7828 H         1 <0>         0.1412
     45 H2         -5.7053   -1.3027   -2.1188 H         1 <0>         0.1451
     46 H3        -10.3743   -2.0047   -0.5891 H         1 <0>         0.1336
     47 H4         -7.2367    0.6226   -1.9242 H         1 <0>         0.1567
     48 H5          3.5627   -2.8549    0.7003 H         1 <0>         0.0649
     49 H6          2.0259   -2.5829   -0.0837 H         1 <0>         0.0476
     50 H7          2.8567   -4.7427   -0.7790 H         1 <0>         0.0641
     51 H8          3.1032   -5.2618    0.8729 H         1 <0>         0.0484
     52 H9          2.1569   -0.7868    1.7257 H         1 <0>         0.0596
     53 H10         1.5124   -1.2395    3.3116 H         1 <0>         0.0757
     54 H11         1.0921   -5.7802    2.3299 H         1 <0>         0.0782
     55 H12        -0.5175   -5.5090    1.7393 H         1 <0>         0.0812
     56 H13        -0.5378   -0.6778    2.3126 H         1 <0>         0.0731
     57 H14         2.6304   -3.2407    2.8169 H         1 <0>         0.0511
     58 H15         0.4523   -3.8218    3.4319 H         1 <0>         0.0753
     59 H16         0.3841   -4.5700   -0.3844 H         1 <0>         0.0427
     60 H17        -6.2768   -0.0422    1.0282 H         1 <0>         0.0450
     61 H18        -6.0867   -1.2049    2.3377 H         1 <0>         0.0406
     62 H19        -5.3599   -1.5330    0.7535 H         1 <0>         0.0274
     63 H20        -3.4369    0.0757   -0.0807 H         1 <0>         0.0476
     64 H21        -4.4352    1.4732    0.3573 H         1 <0>         0.0170
     65 H22        -2.8146    1.2981    1.0427 H         1 <0>         0.0477
     66 H23        -5.5474   -3.7275   -2.4060 H         1 <0>         0.0814
     67 H24        -6.8380   -4.7868   -1.8773 H         1 <0>         0.0685
     68 H25         0.0724    2.8576    0.5040 H         1 <0>         0.1016
     69 H26         1.0181    3.5045   -0.8331 H         1 <0>         0.0660
     70 H27        -0.4694    2.3356   -2.4708 H         1 <0>         0.0512
     71 H28        -1.4639    1.7294   -1.1616 H         1 <0>         0.0454
     72 H29        -2.3434   -0.4411    2.7760 H         1 <0>         0.0575
     73 H30        -3.6273   -1.4576    3.4018 H         1 <0>         0.0743
     74 H31        -1.9599    4.0433   -0.3383 H         1 <0>         0.0662
     75 H32        -1.0251    4.6914   -1.6936 H         1 <0>         0.0622
     76 H33         2.4001    1.7344   -1.1517 H         1 <0>         0.0321
     77 H34         1.9468    1.3120   -2.8125 H         1 <0>         0.0204
     78 H35        -2.3687   -1.7253    0.5998 H         1 <0>         0.0749
     79 H36        -6.1196   -4.0302    0.5986 H         1 <0>         0.0719
     80 H37        -4.5575    0.6951    2.7011 H         1 <0>         0.0609
     81 H38         0.0149    0.0012   -2.0158 H         1 <0>         0.1063
     82 H39         0.1191    7.5912    1.6332 H         1 <0>         0.4792
     83 H40        -1.2165    8.5796    1.1310 H         1 <0>         0.4819
     84 H41        -2.7189    6.1381   -1.0919 H         1 <0>         0.4802
     85 H42        -2.8574    7.7464   -0.4423 H         1 <0>         0.4826
     86 H43         0.8216    0.7626    0.7549 H         1 <0>         0.3101
     87 H44        -4.4587   -3.4100    1.8874 H         1 <0>         0.3087
     88 H45         0.3414    5.3470    0.7425 H         1 <0>         0.4846
     89 H46       -10.3777    0.3549   -0.4120 H         1 <0>         0.4194
     90 H47         1.8515   -6.8926    0.0654 H         1 <0>         0.4036
     91 H48         2.8853   -0.3414   -0.7399 H         1 <0>         0.4114
     92 H49        -5.5016   -5.9777   -0.9744 H         1 <0>         0.3944
@<TRIPOS>BOND
     1    1    3 ar
     2    1    5 ar
     3    2    4 ar
     4    2    5 ar
     5    3    6 ar
     6    4    6 ar
     7    5   21 1
     8    6   40 1
     9    7   15 1
    10    7   34 am
    11    7   37 2
    12    8   27 1
    13    8   31 am
    14    8   38 2
    15    9   28 1
    16    9   35 am
    17    9   39 2
    18   10   32 1
    19   10   33 1
    20   10   36 1
    21   11   12 1
    22   11   16 1
    23   12   18 1
    24   13   15 1
    25   13   16 1
    26   14   17 1
    27   14   18 1
    28   15   31 1
    29   16   17 1
    30   17   31 1
    31   18   41 1
    32   19   29 1
    33   20   29 1
    34   21   28 1
    35   22   23 1
    36   22   25 1
    37   23   30 1
    38   24   27 1
    39   24   29 1
    40   25   36 1
    41   26   30 1
    42   26   42 1
    43   27   35 1
    44   28   43 1
    45   30   34 1
    46    1   44 1
    47    2   45 1
    48    3   46 1
    49    4   47 1
    50   11   48 1
    51   11   49 1
    52   12   50 1
    53   12   51 1
    54   13   52 1
    55   13   53 1
    56   14   54 1
    57   14   55 1
    58   15   56 1
    59   16   57 1
    60   17   58 1
    61   18   59 1
    62   19   60 1
    63   19   61 1
    64   19   62 1
    65   20   63 1
    66   20   64 1
    67   20   65 1
    68   21   66 1
    69   21   67 1
    70   22   68 1
    71   22   69 1
    72   23   70 1
    73   23   71 1
    74   24   72 1
    75   24   73 1
    76   25   74 1
    77   25   75 1
    78   26   76 1
    79   26   77 1
    80   27   78 1
    81   28   79 1
    82   29   80 1
    83   30   81 1
    84   32   82 1
    85   32   83 1
    86   33   84 1
    87   33   85 1
    88   34   86 1
    89   35   87 1
    90   36   88 1
    91   40   89 1
    92   41   90 1
    93   42   91 1
    94   43   92 1
@<TRIPOS>MOLECULE
1a2c_ligand_134
   92    94     0     0     0
SMALL
USER_CHARGES

mmff94s_NoEstat = 111.90
@<TRIPOS>ATOM
      1 C1          8.6458    1.5507    3.5275 C.ar      1 <0>        -0.0708
      2 C2          8.6534    0.6081    1.3030 C.ar      1 <0>        -0.0872
      3 C3          9.9381    2.0357    3.3263 C.ar      1 <0>        -0.2241
      4 C4          9.9457    1.0931    1.1018 C.ar      1 <0>        -0.1600
      5 C5          8.0208    0.8434    2.5131 C.ar      1 <0>        -0.1356
      6 C6         10.5880    1.8070    2.1135 C.ar      1 <0>         0.1290
      7 C7          0.1755   -1.0766    0.1327 C.2       1 <0>         0.6664
      8 C8          2.3785   -0.9757    2.2764 C.2       1 <0>         0.6651
      9 C9          5.2695   -1.7615    3.1198 C.2       1 <0>         0.6454
     10 C10        -0.7921    3.5473    2.6713 C.cat     1 <0>         0.6349
     11 C11         2.4521   -5.3069   -0.2561 C.3       1 <0>        -0.0642
     12 C12         1.2413   -5.9691    0.3982 C.3       1 <0>        -0.0747
     13 C13         1.5734   -2.9393   -0.7647 C.3       1 <0>        -0.0873
     14 C14         1.0938   -4.1277    2.1072 C.3       1 <0>        -0.1371
     15 C15         1.5650   -1.6216    0.0133 C.3       1 <0>         0.0360
     16 C16         2.5597   -3.8106    0.0203 C.3       1 <0>        -0.0720
     17 C17         2.2934   -3.4012    1.4755 C.3       1 <0>         0.1201
     18 C18         1.1411   -5.6363    1.8853 C.3       1 <0>         0.1453
     19 C19         3.8896   -0.8379    6.4377 C.3       1 <0>        -0.0968
     20 C20         2.2599   -2.7349    6.3694 C.3       1 <0>        -0.0986
     21 C21         6.6216    0.3189    2.7306 C.3       1 <0>        -0.0191
     22 C22        -0.8392    2.2664   -0.8852 C.3       1 <0>        -0.1009
     23 C23        -1.6754    1.2905   -1.7214 C.3       1 <0>        -0.0942
     24 C24         1.9925   -0.8489    4.7298 C.3       1 <0>        -0.0988
     25 C25        -1.3442    2.3298    0.5545 C.3       1 <0>         0.1966
     26 C26        -2.5783   -1.1036   -2.0263 C.3       1 <0>         0.1128
     27 C27         2.8496   -1.4560    3.6253 C.3       1 <0>         0.0786
     28 C28         6.6222   -1.0920    3.3282 C.3       1 <0>         0.0744
     29 C29         2.4383   -1.2292    6.1562 C.3       1 <0>        -0.0678
     30 C30        -1.7203   -0.1547   -1.1858 C.3       1 <0>         0.1065
     31 N1          2.0322   -1.9586    1.3590 N.am      1 <0>        -0.4315
     32 N2          0.0035    4.4513    3.3675 N.pl3     1 <0>        -0.8671
     33 N3         -1.8434    2.9208    3.3318 N.pl3     1 <0>        -0.8581
     34 N4         -0.3878   -0.7030   -1.0725 N.am      1 <0>        -0.5687
     35 N5          4.2184   -1.0331    3.6724 N.am      1 <0>        -0.5746
     36 N6         -0.5475    3.2615    1.3170 N.pl3     1 <0>        -0.7533
     37 O1         -0.3509   -1.0007    1.2367 O.2       1 <0>        -0.5843
     38 O2          2.3230    0.2335    2.0409 O.2       1 <0>        -0.6812
     39 O3          5.1476   -2.8360    2.5359 O.2       1 <0>        -0.5788
     40 O4         11.8484    2.2817    1.9166 O.3       1 <0>        -0.4938
     41 O5          2.2611   -6.1715    2.5852 O.3       1 <0>        -0.6030
     42 O6         -2.5724   -2.4015   -1.4465 O.3       1 <0>        -0.5860
     43 O7          6.8631   -1.0017    4.7250 O.3       1 <0>        -0.6021
     44 H1          8.1477    1.7337    4.4757 H         1 <0>         0.1412
     45 H2          8.1605    0.0531    0.5089 H         1 <0>         0.1451
     46 H3         10.4330    2.5911    4.1181 H         1 <0>         0.1336
     47 H4         10.4465    0.9125    0.1543 H         1 <0>         0.1567
     48 H5          3.3605   -5.7937    0.1218 H         1 <0>         0.0649
     49 H6          2.4319   -5.4897   -1.3370 H         1 <0>         0.0476
     50 H7          0.3241   -5.6545   -0.1129 H         1 <0>         0.0641
     51 H8          1.3294   -7.0545    0.2691 H         1 <0>         0.0484
     52 H9          0.5754   -3.3919   -0.8000 H         1 <0>         0.0596
     53 H10         1.8977   -2.7914   -1.8003 H         1 <0>         0.0757
     54 H11         1.0807   -3.9085    3.1823 H         1 <0>         0.0782
     55 H12         0.1523   -3.7376    1.7002 H         1 <0>         0.0812
     56 H13         2.2202   -0.8626   -0.4249 H         1 <0>         0.0731
     57 H14         3.5726   -3.4842   -0.2571 H         1 <0>         0.0511
     58 H15         3.1875   -3.5701    2.0864 H         1 <0>         0.0753
     59 H16         0.2435   -6.1003    2.3075 H         1 <0>         0.0427
     60 H17         4.2001   -1.1859    7.4289 H         1 <0>         0.0450
     61 H18         4.0203    0.2482    6.4220 H         1 <0>         0.0406
     62 H19         4.5693   -1.2752    5.6986 H         1 <0>         0.0274
     63 H20         2.8852   -3.3113    5.6789 H         1 <0>         0.0476
     64 H21         2.5335   -3.0185    7.3913 H         1 <0>         0.0170
     65 H22         1.2173   -3.0301    6.2104 H         1 <0>         0.0477
     66 H23         6.0831    0.3221    1.7735 H         1 <0>         0.0814
     67 H24         6.0853    1.0243    3.3778 H         1 <0>         0.0685
     68 H25         0.2122    1.9562   -0.8821 H         1 <0>         0.1016
     69 H26        -0.8730    3.2698   -1.3263 H         1 <0>         0.0660
     70 H27        -1.2820    1.2733   -2.7469 H         1 <0>         0.0512
     71 H28        -2.7004    1.6751   -1.7996 H         1 <0>         0.0454
     72 H29         0.9469   -1.1516    4.5828 H         1 <0>         0.0575
     73 H30         2.0032    0.2464    4.6399 H         1 <0>         0.0743
     74 H31        -1.2851    1.3411    1.0218 H         1 <0>         0.0662
     75 H32        -2.3909    2.6501    0.5805 H         1 <0>         0.0622
     76 H33        -2.2157   -1.1795   -3.0567 H         1 <0>         0.0321
     77 H34        -3.6169   -0.7550   -2.0576 H         1 <0>         0.0204
     78 H35         2.8203   -2.5449    3.6159 H         1 <0>         0.0749
     79 H36         7.4053   -1.7180    2.8841 H         1 <0>         0.0719
     80 H37         1.7968   -0.7138    6.8816 H         1 <0>         0.0609
     81 H38        -2.1562   -0.1031   -0.1797 H         1 <0>         0.1063
     82 H39         0.7836    4.9313    2.9267 H         1 <0>         0.4792
     83 H40        -0.1744    4.6567    4.3479 H         1 <0>         0.4819
     84 H41        -2.4446    2.2546    2.8530 H         1 <0>         0.4802
     85 H42        -2.0394    3.1134    4.3112 H         1 <0>         0.4826
     86 H43         0.1607   -0.8193   -1.9192 H         1 <0>         0.3101
     87 H44         4.4349   -0.1495    4.1364 H         1 <0>         0.3087
     88 H45         0.2413    3.7522    0.8785 H         1 <0>         0.4846
     89 H46        12.3411    2.2846    2.7528 H         1 <0>         0.4194
     90 H47         2.7873   -5.4145    2.8873 H         1 <0>         0.4036
     91 H48        -1.7464   -2.8287   -1.7250 H         1 <0>         0.4114
     92 H49         7.2149   -0.1122    4.8926 H         1 <0>         0.3944
@<TRIPOS>BOND
     1    1    3 ar
     2    1    5 ar
     3    2    4 ar
     4    2    5 ar
     5    3    6 ar
     6    4    6 ar
     7    5   21 1
     8    6   40 1
     9    7   15 1
    10    7   34 am
    11    7   37 2
    12    8   27 1
    13    8   31 am
    14    8   38 2
    15    9   28 1
    16    9   35 am
    17    9   39 2
    18   10   32 1
    19   10   33 1
    20   10   36 1
    21   11   12 1
    22   11   16 1
    23   12   18 1
    24   13   15 1
    25   13   16 1
    26   14   17 1
    27   14   18 1
    28   15   31 1
    29   16   17 1
    30   17   31 1
    31   18   41 1
    32   19   29 1
    33   20   29 1
    34   21   28 1
    35   22   23 1
    36   22   25 1
    37   23   30 1
    38   24   27 1
    39   24   29 1
    40   25   36 1
    41   26   30 1
    42   26   42 1
    43   27   35 1
    44   28   43 1
    45   30   34 1
    46    1   44 1
    47    2   45 1
    48    3   46 1
    49    4   47 1
    50   11   48 1
    51   11   49 1
    52   12   50 1
    53   12   51 1
    54   13   52 1
    55   13   53 1
    56   14   54 1
    57   14   55 1
    58   15   56 1
    59   16   57 1
    60   17   58 1
    61   18   59 1
    62   19   60 1
    63   19   61 1
    64   19   62 1
    65   20   63 1
    66   20   64 1
    67   20   65 1
    68   21   66 1
    69   21   67 1
    70   22   68 1
    71   22   69 1
    72   23   70 1
    73   23   71 1
    74   24   72 1
    75   24   73 1
    76   25   74 1
    77   25   75 1
    78   26   76 1
    79   26   77 1
    80   27   78 1
    81   28   79 1
    82   29   80 1
    83   30   81 1
    84   32   82 1
    85   32   83 1
    86   33   84 1
    87   33   85 1
    88   34   86 1
    89   35   87 1
    90   36   88 1
    91   40   89 1
    92   41   90 1
    93   42   91 1
    94   43   92 1
@<TRIPOS>MOLECULE
1a2c_ligand_135
   92    94     0     0     0
SMALL
USER_CHARGES

mmff94s_NoEstat = 112.06
@<TRIPOS>ATOM
      1 C1          8.6458    1.5507    3.5275 C.ar      1 <0>        -0.0708
      2 C2          8.6534    0.6081    1.3030 C.ar      1 <0>        -0.0872
      3 C3          9.9381    2.0357    3.3263 C.ar      1 <0>        -0.2241
      4 C4          9.9457    1.0931    1.1018 C.ar      1 <0>        -0.1600
      5 C5          8.0208    0.8434    2.5131 C.ar      1 <0>        -0.1356
      6 C6         10.5880    1.8070    2.1135 C.ar      1 <0>         0.1290
      7 C7          0.1755   -1.0766    0.1327 C.2       1 <0>         0.6664
      8 C8          2.3785   -0.9757    2.2764 C.2       1 <0>         0.6651
      9 C9          5.2695   -1.7615    3.1198 C.2       1 <0>         0.6454
     10 C10        -2.8631    4.0421    0.2667 C.cat     1 <0>         0.6349
     11 C11         2.4521   -5.3069   -0.2561 C.3       1 <0>        -0.0642
     12 C12         1.2413   -5.9691    0.3982 C.3       1 <0>        -0.0747
     13 C13         1.5734   -2.9393   -0.7647 C.3       1 <0>        -0.0873
     14 C14         1.0938   -4.1277    2.1072 C.3       1 <0>        -0.1371
     15 C15         1.5650   -1.6216    0.0133 C.3       1 <0>         0.0360
     16 C16         2.5597   -3.8106    0.0203 C.3       1 <0>        -0.0720
     17 C17         2.2934   -3.4012    1.4755 C.3       1 <0>         0.1201
     18 C18         1.1411   -5.6363    1.8853 C.3       1 <0>         0.1453
     19 C19         3.8896   -0.8379    6.4377 C.3       1 <0>        -0.0968
     20 C20         2.2599   -2.7349    6.3694 C.3       1 <0>        -0.0986
     21 C21         6.6216    0.3189    2.7306 C.3       1 <0>        -0.0191
     22 C22        -0.8155    2.0502   -2.2095 C.3       1 <0>        -0.1009
     23 C23        -1.7941    0.8762   -2.3301 C.3       1 <0>        -0.0942
     24 C24         1.9925   -0.8489    4.7298 C.3       1 <0>        -0.0988
     25 C25        -1.0238    2.8078   -0.9000 C.3       1 <0>         0.1966
     26 C26        -2.7214   -1.3050   -1.3187 C.3       1 <0>         0.1128
     27 C27         2.8496   -1.4560    3.6253 C.3       1 <0>         0.0786
     28 C28         6.6222   -1.0920    3.3282 C.3       1 <0>         0.0744
     29 C29         2.4383   -1.2292    6.1562 C.3       1 <0>        -0.0678
     30 C30        -1.7203   -0.1547   -1.1858 C.3       1 <0>         0.1065
     31 N1          2.0322   -1.9586    1.3590 N.am      1 <0>        -0.4315
     32 N2         -4.1696    4.5193    0.2852 N.pl3     1 <0>        -0.8671
     33 N3         -2.0366    4.2867    1.3580 N.pl3     1 <0>        -0.8581
     34 N4         -0.3878   -0.7030   -1.0725 N.am      1 <0>        -0.5687
     35 N5          4.2184   -1.0331    3.6724 N.am      1 <0>        -0.5746
     36 N6         -2.3718    3.3203   -0.8349 N.pl3     1 <0>        -0.7533
     37 O1         -0.3509   -1.0007    1.2367 O.2       1 <0>        -0.5843
     38 O2          2.3230    0.2335    2.0409 O.2       1 <0>        -0.6812
     39 O3          5.1476   -2.8360    2.5359 O.2       1 <0>        -0.5788
     40 O4         11.8484    2.2817    1.9166 O.3       1 <0>        -0.4938
     41 O5          2.2611   -6.1715    2.5852 O.3       1 <0>        -0.6030
     42 O6         -2.4752   -2.0231   -2.5206 O.3       1 <0>        -0.5860
     43 O7          6.8631   -1.0017    4.7250 O.3       1 <0>        -0.6021
     44 H1          8.1477    1.7337    4.4757 H         1 <0>         0.1412
     45 H2          8.1605    0.0531    0.5089 H         1 <0>         0.1451
     46 H3         10.4330    2.5911    4.1181 H         1 <0>         0.1336
     47 H4         10.4465    0.9125    0.1543 H         1 <0>         0.1567
     48 H5          3.3605   -5.7937    0.1218 H         1 <0>         0.0649
     49 H6          2.4319   -5.4897   -1.3370 H         1 <0>         0.0476
     50 H7          0.3241   -5.6545   -0.1129 H         1 <0>         0.0641
     51 H8          1.3294   -7.0545    0.2691 H         1 <0>         0.0484
     52 H9          0.5754   -3.3919   -0.8000 H         1 <0>         0.0596
     53 H10         1.8977   -2.7914   -1.8003 H         1 <0>         0.0757
     54 H11         1.0807   -3.9085    3.1823 H         1 <0>         0.0782
     55 H12         0.1523   -3.7376    1.7002 H         1 <0>         0.0812
     56 H13         2.2202   -0.8626   -0.4249 H         1 <0>         0.0731
     57 H14         3.5726   -3.4842   -0.2571 H         1 <0>         0.0511
     58 H15         3.1875   -3.5701    2.0864 H         1 <0>         0.0753
     59 H16         0.2435   -6.1003    2.3075 H         1 <0>         0.0427
     60 H17         4.2001   -1.1859    7.4289 H         1 <0>         0.0450
     61 H18         4.0203    0.2482    6.4220 H         1 <0>         0.0406
     62 H19         4.5693   -1.2752    5.6986 H         1 <0>         0.0274
     63 H20         2.8852   -3.3113    5.6789 H         1 <0>         0.0476
     64 H21         2.5335   -3.0185    7.3913 H         1 <0>         0.0170
     65 H22         1.2173   -3.0301    6.2104 H         1 <0>         0.0477
     66 H23         6.0831    0.3221    1.7735 H         1 <0>         0.0814
     67 H24         6.0853    1.0243    3.3778 H         1 <0>         0.0685
     68 H25         0.2178    1.6866   -2.2519 H         1 <0>         0.1016
     69 H26        -0.9442    2.7400   -3.0523 H         1 <0>         0.0660
     70 H27        -1.6130    0.3584   -3.2819 H         1 <0>         0.0512
     71 H28        -2.8171    1.2691   -2.3922 H         1 <0>         0.0454
     72 H29         0.9469   -1.1516    4.5828 H         1 <0>         0.0575
     73 H30         2.0032    0.2464    4.6399 H         1 <0>         0.0743
     74 H31        -0.3188    3.6426   -0.8277 H         1 <0>         0.0662
     75 H32        -0.8506    2.1484   -0.0433 H         1 <0>         0.0622
     76 H33        -3.7565   -0.9478   -1.3308 H         1 <0>         0.0321
     77 H34        -2.6144   -2.0048   -0.4820 H         1 <0>         0.0204
     78 H35         2.8203   -2.5449    3.6159 H         1 <0>         0.0749
     79 H36         7.4053   -1.7180    2.8841 H         1 <0>         0.0719
     80 H37         1.7968   -0.7138    6.8816 H         1 <0>         0.0609
     81 H38        -1.9472    0.3883   -0.2591 H         1 <0>         0.1063
     82 H39        -4.8087    4.3663   -0.4903 H         1 <0>         0.4792
     83 H40        -4.5236    5.0421    1.0829 H         1 <0>         0.4819
     84 H41        -1.0762    3.9524    1.3774 H         1 <0>         0.4802
     85 H42        -2.3714    4.8057    2.1662 H         1 <0>         0.4826
     86 H43         0.1607   -0.8193   -1.9192 H         1 <0>         0.3101
     87 H44         4.4349   -0.1495    4.1364 H         1 <0>         0.3087
     88 H45        -3.0246    3.1684   -1.6133 H         1 <0>         0.4846
     89 H46        12.3411    2.2846    2.7528 H         1 <0>         0.4194
     90 H47         2.7873   -5.4145    2.8873 H         1 <0>         0.4036
     91 H48        -2.8906   -1.5183   -3.2383 H         1 <0>         0.4114
     92 H49         7.2149   -0.1122    4.8926 H         1 <0>         0.3944
@<TRIPOS>BOND
     1    1    3 ar
     2    1    5 ar
     3    2    4 ar
     4    2    5 ar
     5    3    6 ar
     6    4    6 ar
     7    5   21 1
     8    6   40 1
     9    7   15 1
    10    7   34 am
    11    7   37 2
    12    8   27 1
    13    8   31 am
    14    8   38 2
    15    9   28 1
    16    9   35 am
    17    9   39 2
    18   10   32 1
    19   10   33 1
    20   10   36 1
    21   11   12 1
    22   11   16 1
    23   12   18 1
    24   13   15 1
    25   13   16 1
    26   14   17 1
    27   14   18 1
    28   15   31 1
    29   16   17 1
    30   17   31 1
    31   18   41 1
    32   19   29 1
    33   20   29 1
    34   21   28 1
    35   22   23 1
    36   22   25 1
    37   23   30 1
    38   24   27 1
    39   24   29 1
    40   25   36 1
    41   26   30 1
    42   26   42 1
    43   27   35 1
    44   28   43 1
    45   30   34 1
    46    1   44 1
    47    2   45 1
    48    3   46 1
    49    4   47 1
    50   11   48 1
    51   11   49 1
    52   12   50 1
    53   12   51 1
    54   13   52 1
    55   13   53 1
    56   14   54 1
    57   14   55 1
    58   15   56 1
    59   16   57 1
    60   17   58 1
    61   18   59 1
    62   19   60 1
    63   19   61 1
    64   19   62 1
    65   20   63 1
    66   20   64 1
    67   20   65 1
    68   21   66 1
    69   21   67 1
    70   22   68 1
    71   22   69 1
    72   23   70 1
    73   23   71 1
    74   24   72 1
    75   24   73 1
    76   25   74 1
    77   25   75 1
    78   26   76 1
    79   26   77 1
    80   27   78 1
    81   28   79 1
    82   29   80 1
    83   30   81 1
    84   32   82 1
    85   32   83 1
    86   33   84 1
    87   33   85 1
    88   34   86 1
    89   35   87 1
    90   36   88 1
    91   40   89 1
    92   41   90 1
    93   42   91 1
    94   43   92 1
@<TRIPOS>MOLECULE
1a2c_ligand_136
   92    94     0     0     0
SMALL
USER_CHARGES

mmff94s_NoEstat = 112.07
@<TRIPOS>ATOM
      1 C1         -9.0710   -3.1012    0.0189 C.ar      1 <0>        -0.0708
      2 C2         -7.9646   -4.4965    1.6517 C.ar      1 <0>        -0.0872
      3 C3        -10.1182   -4.0195   -0.0562 C.ar      1 <0>        -0.2241
      4 C4         -9.0118   -5.4148    1.5766 C.ar      1 <0>        -0.1600
      5 C5         -8.0083   -3.3520    0.8718 C.ar      1 <0>        -0.1356
      6 C6        -10.0887   -5.1764    0.7226 C.ar      1 <0>         0.1290
      7 C7         -0.0512   -1.0561    0.2993 C.2       1 <0>         0.6664
      8 C8         -1.8469   -3.0457    2.1630 C.2       1 <0>         0.6651
      9 C9         -4.4743   -1.9575    0.3333 C.2       1 <0>         0.6454
     10 C10        -4.0116    5.1557   -0.3824 C.cat     1 <0>         0.6349
     11 C11         2.5186   -3.1911    0.6823 C.3       1 <0>        -0.0642
     12 C12         2.4580   -4.6414    0.2376 C.3       1 <0>        -0.0747
     13 C13         1.4874   -1.4827    2.2418 C.3       1 <0>        -0.0873
     14 C14         0.4946   -5.0934    1.7133 C.3       1 <0>        -0.1371
     15 C15         0.0412   -1.4176    1.7503 C.3       1 <0>         0.0360
     16 C16         1.8865   -2.9529    2.0632 C.3       1 <0>        -0.0720
     17 C17         0.5665   -3.7001    2.3454 C.3       1 <0>         0.1201
     18 C18         1.0248   -5.1525    0.2868 C.3       1 <0>         0.1453
     19 C19        -5.3726   -0.5418    3.1302 C.3       1 <0>        -0.0968
     20 C20        -3.4397    1.0389    2.9738 C.3       1 <0>        -0.0986
     21 C21        -6.8749   -2.3574    0.9537 C.3       1 <0>        -0.0191
     22 C22        -1.2019    2.6554   -0.7648 C.3       1 <0>        -0.1009
     23 C23        -0.8794    1.4488   -1.6540 C.3       1 <0>        -0.0942
     24 C24        -2.9973   -1.3585    3.5851 C.3       1 <0>        -0.0988
     25 C25        -2.5638    3.2498   -1.1169 C.3       1 <0>         0.1966
     26 C26         1.6856    1.6412   -1.5001 C.3       1 <0>         0.1128
     27 C27        -2.7865   -1.8644    2.1628 C.3       1 <0>         0.0786
     28 C28        -5.7663   -2.6636   -0.0588 C.3       1 <0>         0.0744
     29 C29        -3.9969   -0.1898    3.6979 C.3       1 <0>        -0.0678
     30 C30         0.4555    0.7445   -1.3388 C.3       1 <0>         0.1065
     31 N1         -0.4979   -2.7598    1.9615 N.am      1 <0>        -0.4315
     32 N2         -4.2357    6.2444    0.4539 N.pl3     1 <0>        -0.8671
     33 N3         -4.9668    4.8273   -1.3383 N.pl3     1 <0>        -0.8581
     34 N4          0.4455    0.1980   -0.0008 N.am      1 <0>        -0.5687
     35 N5         -3.9799   -2.3853    1.5634 N.am      1 <0>        -0.5746
     36 N6         -2.8388    4.3887   -0.2734 N.pl3     1 <0>        -0.7533
     37 O1         -0.5362   -1.8555   -0.4928 O.2       1 <0>        -0.5843
     38 O2         -2.2998   -4.1783    2.3409 O.2       1 <0>        -0.6812
     39 O3         -3.9527   -1.0962   -0.3713 O.2       1 <0>        -0.5788
     40 O4        -11.1113   -6.0717    0.6505 O.3       1 <0>        -0.4938
     41 O5          0.9879   -6.5072   -0.1510 O.3       1 <0>        -0.6030
     42 O6          2.8639    0.9021   -1.2063 O.3       1 <0>        -0.5860
     43 O7         -6.1634   -2.1870   -1.3365 O.3       1 <0>        -0.6021
     44 H1         -9.1028   -2.2030   -0.5918 H         1 <0>         0.1412
     45 H2         -7.1297   -4.6904    2.3201 H         1 <0>         0.1451
     46 H3        -10.9542   -3.8281   -0.7231 H         1 <0>         0.1336
     47 H4         -8.9835   -6.3139    2.1866 H         1 <0>         0.1567
     48 H5          3.5627   -2.8549    0.7003 H         1 <0>         0.0649
     49 H6          2.0259   -2.5829   -0.0837 H         1 <0>         0.0476
     50 H7          2.8567   -4.7427   -0.7790 H         1 <0>         0.0641
     51 H8          3.1032   -5.2618    0.8729 H         1 <0>         0.0484
     52 H9          2.1569   -0.7868    1.7257 H         1 <0>         0.0596
     53 H10         1.5124   -1.2395    3.3116 H         1 <0>         0.0757
     54 H11         1.0921   -5.7802    2.3299 H         1 <0>         0.0782
     55 H12        -0.5175   -5.5090    1.7393 H         1 <0>         0.0812
     56 H13        -0.5378   -0.6778    2.3126 H         1 <0>         0.0731
     57 H14         2.6304   -3.2407    2.8169 H         1 <0>         0.0511
     58 H15         0.4523   -3.8218    3.4319 H         1 <0>         0.0753
     59 H16         0.3841   -4.5700   -0.3844 H         1 <0>         0.0427
     60 H17        -6.0375    0.3284    3.1563 H         1 <0>         0.0450
     61 H18        -5.8542   -1.3328    3.7128 H         1 <0>         0.0406
     62 H19        -5.2988   -0.8789    2.0908 H         1 <0>         0.0274
     63 H20        -3.3028    0.8425    1.9049 H         1 <0>         0.0476
     64 H21        -4.1178    1.8926    3.0773 H         1 <0>         0.0170
     65 H22        -2.4708    1.3315    3.3922 H         1 <0>         0.0477
     66 H23        -6.4655   -2.3612    1.9727 H         1 <0>         0.0814
     67 H24        -7.2864   -1.3519    0.8004 H         1 <0>         0.0685
     68 H25        -1.2036    2.3575    0.2901 H         1 <0>         0.1016
     69 H26        -0.4298    3.4262   -0.8760 H         1 <0>         0.0660
     70 H27        -0.8663    1.7736   -2.7033 H         1 <0>         0.0512
     71 H28        -1.6959    0.7195   -1.5759 H         1 <0>         0.0454
     72 H29        -2.0302   -1.0518    4.0061 H         1 <0>         0.0575
     73 H30        -3.3514   -2.1846    4.2177 H         1 <0>         0.0743
     74 H31        -3.3520    2.5022   -0.9783 H         1 <0>         0.0662
     75 H32        -2.5848    3.5678   -2.1644 H         1 <0>         0.0622
     76 H33         1.6463    2.5133   -0.8391 H         1 <0>         0.0321
     77 H34         1.7645    2.0016   -2.5321 H         1 <0>         0.0204
     78 H35        -2.3647   -1.1082    1.5019 H         1 <0>         0.0749
     79 H36        -5.5777   -3.7409   -0.1372 H         1 <0>         0.0719
     80 H37        -4.1195    0.0762    4.7551 H         1 <0>         0.0609
     81 H38         0.5463   -0.0881   -2.0483 H         1 <0>         0.1063
     82 H39        -3.5669    6.5202    1.1680 H         1 <0>         0.4792
     83 H40        -5.0854    6.7983    0.3742 H         1 <0>         0.4819
     84 H41        -4.8350    4.0377   -1.9658 H         1 <0>         0.4802
     85 H42        -5.8222    5.3690   -1.4357 H         1 <0>         0.4826
     86 H43         0.8216    0.7626    0.7549 H         1 <0>         0.3101
     87 H44        -4.4957   -3.1095    2.0656 H         1 <0>         0.3087
     88 H45        -2.1673    4.6753    0.4493 H         1 <0>         0.4846
     89 H46       -11.4852   -6.0838   -0.2450 H         1 <0>         0.4194
     90 H47         1.8515   -6.8926    0.0654 H         1 <0>         0.4036
     91 H48         2.9483    0.8828   -0.2393 H         1 <0>         0.4114
     92 H49        -7.1203   -2.0275   -1.2920 H         1 <0>         0.3944
@<TRIPOS>BOND
     1    1    3 ar
     2    1    5 ar
     3    2    4 ar
     4    2    5 ar
     5    3    6 ar
     6    4    6 ar
     7    5   21 1
     8    6   40 1
     9    7   15 1
    10    7   34 am
    11    7   37 2
    12    8   27 1
    13    8   31 am
    14    8   38 2
    15    9   28 1
    16    9   35 am
    17    9   39 2
    18   10   32 1
    19   10   33 1
    20   10   36 1
    21   11   12 1
    22   11   16 1
    23   12   18 1
    24   13   15 1
    25   13   16 1
    26   14   17 1
    27   14   18 1
    28   15   31 1
    29   16   17 1
    30   17   31 1
    31   18   41 1
    32   19   29 1
    33   20   29 1
    34   21   28 1
    35   22   23 1
    36   22   25 1
    37   23   30 1
    38   24   27 1
    39   24   29 1
    40   25   36 1
    41   26   30 1
    42   26   42 1
    43   27   35 1
    44   28   43 1
    45   30   34 1
    46    1   44 1
    47    2   45 1
    48    3   46 1
    49    4   47 1
    50   11   48 1
    51   11   49 1
    52   12   50 1
    53   12   51 1
    54   13   52 1
    55   13   53 1
    56   14   54 1
    57   14   55 1
    58   15   56 1
    59   16   57 1
    60   17   58 1
    61   18   59 1
    62   19   60 1
    63   19   61 1
    64   19   62 1
    65   20   63 1
    66   20   64 1
    67   20   65 1
    68   21   66 1
    69   21   67 1
    70   22   68 1
    71   22   69 1
    72   23   70 1
    73   23   71 1
    74   24   72 1
    75   24   73 1
    76   25   74 1
    77   25   75 1
    78   26   76 1
    79   26   77 1
    80   27   78 1
    81   28   79 1
    82   29   80 1
    83   30   81 1
    84   32   82 1
    85   32   83 1
    86   33   84 1
    87   33   85 1
    88   34   86 1
    89   35   87 1
    90   36   88 1
    91   40   89 1
    92   41   90 1
    93   42   91 1
    94   43   92 1
@<TRIPOS>MOLECULE
1a2c_ligand_137
   92    94     0     0     0
SMALL
USER_CHARGES

mmff94s_NoEstat = 112.13
@<TRIPOS>ATOM
      1 C1          7.4135   -1.5923    6.5285 C.ar      1 <0>        -0.0708
      2 C2          6.2576   -3.5017    5.6037 C.ar      1 <0>        -0.0872
      3 C3          6.9411   -1.9217    7.7989 C.ar      1 <0>        -0.2241
      4 C4          5.7852   -3.8311    6.8742 C.ar      1 <0>        -0.1600
      5 C5          7.0655   -2.3867    5.4480 C.ar      1 <0>        -0.1356
      6 C6          6.1269   -3.0411    7.9718 C.ar      1 <0>         0.1290
      7 C7          0.1755   -1.0766    0.1327 C.2       1 <0>         0.6664
      8 C8          2.3785   -0.9757    2.2764 C.2       1 <0>         0.6651
      9 C9          5.2695   -1.7615    3.1198 C.2       1 <0>         0.6454
     10 C10        -2.8003    4.5299   -4.2598 C.cat     1 <0>         0.6349
     11 C11         2.4521   -5.3069   -0.2561 C.3       1 <0>        -0.0642
     12 C12         1.2413   -5.9691    0.3982 C.3       1 <0>        -0.0747
     13 C13         1.5734   -2.9393   -0.7647 C.3       1 <0>        -0.0873
     14 C14         1.0938   -4.1277    2.1072 C.3       1 <0>        -0.1371
     15 C15         1.5650   -1.6216    0.0133 C.3       1 <0>         0.0360
     16 C16         2.5597   -3.8106    0.0203 C.3       1 <0>        -0.0720
     17 C17         2.2934   -3.4012    1.4755 C.3       1 <0>         0.1201
     18 C18         1.1411   -5.6363    1.8853 C.3       1 <0>         0.1453
     19 C19         3.8896   -0.8379    6.4377 C.3       1 <0>        -0.0968
     20 C20         2.2599   -2.7349    6.3694 C.3       1 <0>        -0.0986
     21 C21         7.5775   -2.0305    4.0727 C.3       1 <0>        -0.0191
     22 C22        -0.8155    2.0502   -2.2095 C.3       1 <0>        -0.1009
     23 C23        -1.7941    0.8762   -2.3301 C.3       1 <0>        -0.0942
     24 C24         1.9925   -0.8489    4.7298 C.3       1 <0>        -0.0988
     25 C25        -1.0015    3.0414   -3.3563 C.3       1 <0>         0.1966
     26 C26        -2.7214   -1.3050   -1.3187 C.3       1 <0>         0.1128
     27 C27         2.8496   -1.4560    3.6253 C.3       1 <0>         0.0786
     28 C28         6.6222   -1.0920    3.3282 C.3       1 <0>         0.0744
     29 C29         2.4383   -1.2292    6.1562 C.3       1 <0>        -0.0678
     30 C30        -1.7203   -0.1547   -1.1858 C.3       1 <0>         0.1065
     31 N1          2.0322   -1.9586    1.3590 N.am      1 <0>        -0.4315
     32 N2         -4.1031    5.0141   -4.2037 N.pl3     1 <0>        -0.8671
     33 N3         -1.9432    5.0032   -5.2474 N.pl3     1 <0>        -0.8581
     34 N4         -0.3878   -0.7030   -1.0725 N.am      1 <0>        -0.5687
     35 N5          4.2184   -1.0331    3.6724 N.am      1 <0>        -0.5746
     36 N6         -2.3430    3.5743   -3.3360 N.pl3     1 <0>        -0.7533
     37 O1         -0.3509   -1.0007    1.2367 O.2       1 <0>        -0.5843
     38 O2          2.3230    0.2335    2.0409 O.2       1 <0>        -0.6812
     39 O3          5.1476   -2.8360    2.5359 O.2       1 <0>        -0.5788
     40 O4          5.6673   -3.3634    9.2118 O.3       1 <0>        -0.4938
     41 O5          2.2611   -6.1715    2.5852 O.3       1 <0>        -0.6030
     42 O6         -2.4752   -2.0231   -2.5206 O.3       1 <0>        -0.5860
     43 O7          7.1708   -0.7917    2.0529 O.3       1 <0>        -0.6021
     44 H1          8.0470   -0.7183    6.4037 H         1 <0>         0.1412
     45 H2          5.9865   -4.1232    4.7542 H         1 <0>         0.1451
     46 H3          7.2108   -1.3025    8.6499 H         1 <0>         0.1336
     47 H4          5.1520   -4.7050    7.0026 H         1 <0>         0.1567
     48 H5          3.3605   -5.7937    0.1218 H         1 <0>         0.0649
     49 H6          2.4319   -5.4897   -1.3370 H         1 <0>         0.0476
     50 H7          0.3241   -5.6545   -0.1129 H         1 <0>         0.0641
     51 H8          1.3294   -7.0545    0.2691 H         1 <0>         0.0484
     52 H9          0.5754   -3.3919   -0.8000 H         1 <0>         0.0596
     53 H10         1.8977   -2.7914   -1.8003 H         1 <0>         0.0757
     54 H11         1.0807   -3.9085    3.1823 H         1 <0>         0.0782
     55 H12         0.1523   -3.7376    1.7002 H         1 <0>         0.0812
     56 H13         2.2202   -0.8626   -0.4249 H         1 <0>         0.0731
     57 H14         3.5726   -3.4842   -0.2571 H         1 <0>         0.0511
     58 H15         3.1875   -3.5701    2.0864 H         1 <0>         0.0753
     59 H16         0.2435   -6.1003    2.3075 H         1 <0>         0.0427
     60 H17         4.2001   -1.1859    7.4289 H         1 <0>         0.0450
     61 H18         4.0203    0.2482    6.4220 H         1 <0>         0.0406
     62 H19         4.5693   -1.2752    5.6986 H         1 <0>         0.0274
     63 H20         2.8852   -3.3113    5.6789 H         1 <0>         0.0476
     64 H21         2.5335   -3.0185    7.3913 H         1 <0>         0.0170
     65 H22         1.2173   -3.0301    6.2104 H         1 <0>         0.0477
     66 H23         7.7267   -2.9521    3.4943 H         1 <0>         0.0814
     67 H24         8.5725   -1.5809    4.1808 H         1 <0>         0.0685
     68 H25        -0.9672    2.5721   -1.2575 H         1 <0>         0.1016
     69 H26         0.2183    1.6845   -2.2100 H         1 <0>         0.0660
     70 H27        -1.6130    0.3584   -3.2819 H         1 <0>         0.0512
     71 H28        -2.8171    1.2691   -2.3922 H         1 <0>         0.0454
     72 H29         0.9469   -1.1516    4.5828 H         1 <0>         0.0575
     73 H30         2.0032    0.2464    4.6399 H         1 <0>         0.0743
     74 H31        -0.8263    2.5473   -4.3177 H         1 <0>         0.0662
     75 H32        -0.2878    3.8671   -3.2695 H         1 <0>         0.0622
     76 H33        -3.7565   -0.9478   -1.3308 H         1 <0>         0.0321
     77 H34        -2.6144   -2.0048   -0.4820 H         1 <0>         0.0204
     78 H35         2.8203   -2.5449    3.6159 H         1 <0>         0.0749
     79 H36         6.4775   -0.1502    3.8705 H         1 <0>         0.0719
     80 H37         1.7968   -0.7138    6.8816 H         1 <0>         0.0609
     81 H38        -1.9472    0.3883   -0.2591 H         1 <0>         0.1063
     82 H39        -4.7650    4.6958   -3.5009 H         1 <0>         0.4792
     83 H40        -4.4329    5.7054   -4.8734 H         1 <0>         0.4819
     84 H41        -0.9845    4.6705   -5.3172 H         1 <0>         0.4802
     85 H42        -2.2524    5.6955   -5.9254 H         1 <0>         0.4826
     86 H43         0.1607   -0.8193   -1.9192 H         1 <0>         0.3101
     87 H44         4.4349   -0.1495    4.1364 H         1 <0>         0.3087
     88 H45        -3.0174    3.2595   -2.6280 H         1 <0>         0.4846
     89 H46         5.5274   -2.5600    9.7379 H         1 <0>         0.4194
     90 H47         2.7873   -5.4145    2.8873 H         1 <0>         0.4036
     91 H48        -2.8906   -1.5183   -3.2383 H         1 <0>         0.4114
     92 H49         8.1083   -1.0432    2.0839 H         1 <0>         0.3944
@<TRIPOS>BOND
     1    1    3 ar
     2    1    5 ar
     3    2    4 ar
     4    2    5 ar
     5    3    6 ar
     6    4    6 ar
     7    5   21 1
     8    6   40 1
     9    7   15 1
    10    7   34 am
    11    7   37 2
    12    8   27 1
    13    8   31 am
    14    8   38 2
    15    9   28 1
    16    9   35 am
    17    9   39 2
    18   10   32 1
    19   10   33 1
    20   10   36 1
    21   11   12 1
    22   11   16 1
    23   12   18 1
    24   13   15 1
    25   13   16 1
    26   14   17 1
    27   14   18 1
    28   15   31 1
    29   16   17 1
    30   17   31 1
    31   18   41 1
    32   19   29 1
    33   20   29 1
    34   21   28 1
    35   22   23 1
    36   22   25 1
    37   23   30 1
    38   24   27 1
    39   24   29 1
    40   25   36 1
    41   26   30 1
    42   26   42 1
    43   27   35 1
    44   28   43 1
    45   30   34 1
    46    1   44 1
    47    2   45 1
    48    3   46 1
    49    4   47 1
    50   11   48 1
    51   11   49 1
    52   12   50 1
    53   12   51 1
    54   13   52 1
    55   13   53 1
    56   14   54 1
    57   14   55 1
    58   15   56 1
    59   16   57 1
    60   17   58 1
    61   18   59 1
    62   19   60 1
    63   19   61 1
    64   19   62 1
    65   20   63 1
    66   20   64 1
    67   20   65 1
    68   21   66 1
    69   21   67 1
    70   22   68 1
    71   22   69 1
    72   23   70 1
    73   23   71 1
    74   24   72 1
    75   24   73 1
    76   25   74 1
    77   25   75 1
    78   26   76 1
    79   26   77 1
    80   27   78 1
    81   28   79 1
    82   29   80 1
    83   30   81 1
    84   32   82 1
    85   32   83 1
    86   33   84 1
    87   33   85 1
    88   34   86 1
    89   35   87 1
    90   36   88 1
    91   40   89 1
    92   41   90 1
    93   42   91 1
    94   43   92 1
@<TRIPOS>MOLECULE
1a2c_ligand_138
   92    94     0     0     0
SMALL
USER_CHARGES

mmff94s_NoEstat = 112.48
@<TRIPOS>ATOM
      1 C1          8.7543    1.2597    2.9884 C.ar      1 <0>        -0.0708
      2 C2          9.0296   -0.6325    1.5115 C.ar      1 <0>        -0.0872
      3 C3         10.0864    1.6167    2.7793 C.ar      1 <0>        -0.2241
      4 C4         10.3616   -0.2755    1.3024 C.ar      1 <0>        -0.1600
      5 C5          8.2437    0.1400    2.3517 C.ar      1 <0>        -0.1356
      6 C6         10.8901    0.8491    1.9363 C.ar      1 <0>         0.1290
      7 C7          0.1755   -1.0766    0.1327 C.2       1 <0>         0.6664
      8 C8          2.3785   -0.9757    2.2764 C.2       1 <0>         0.6651
      9 C9          5.2968   -1.9145    3.7000 C.2       1 <0>         0.6454
     10 C10        -3.7293    1.9922    2.7781 C.cat     1 <0>         0.6349
     11 C11         2.4521   -5.3069   -0.2561 C.3       1 <0>        -0.0642
     12 C12         1.2413   -5.9691    0.3982 C.3       1 <0>        -0.0747
     13 C13         1.5734   -2.9393   -0.7647 C.3       1 <0>        -0.0873
     14 C14         1.0938   -4.1277    2.1072 C.3       1 <0>        -0.1371
     15 C15         1.5650   -1.6216    0.0133 C.3       1 <0>         0.0360
     16 C16         2.5597   -3.8106    0.0203 C.3       1 <0>        -0.0720
     17 C17         2.2934   -3.4012    1.4755 C.3       1 <0>         0.1201
     18 C18         1.1411   -5.6363    1.8853 C.3       1 <0>         0.1453
     19 C19         3.8896   -0.8379    6.4377 C.3       1 <0>        -0.0968
     20 C20         2.2599   -2.7349    6.3694 C.3       1 <0>        -0.0986
     21 C21         6.8014   -0.2461    2.5776 C.3       1 <0>        -0.0191
     22 C22        -0.6430    2.4326    0.6399 C.3       1 <0>        -0.1009
     23 C23        -1.2979    2.0260   -0.6854 C.3       1 <0>        -0.0942
     24 C24         1.9925   -0.8489    4.7298 C.3       1 <0>        -0.0988
     25 C25        -1.4152    1.8692    1.8307 C.3       1 <0>         0.1966
     26 C26        -2.1127    0.1273   -2.2253 C.3       1 <0>         0.1128
     27 C27         2.8496   -1.4560    3.6253 C.3       1 <0>         0.0786
     28 C28         6.6400   -1.1984    3.7670 C.3       1 <0>         0.0744
     29 C29         2.4383   -1.2292    6.1562 C.3       1 <0>        -0.0678
     30 C30        -1.4370    0.5062   -0.9051 C.3       1 <0>         0.1065
     31 N1          2.0322   -1.9586    1.3590 N.am      1 <0>        -0.4315
     32 N2         -5.0265    2.4916    2.7256 N.pl3     1 <0>        -0.8671
     33 N3         -3.3809    1.1166    3.8008 N.pl3     1 <0>        -0.8581
     34 N4         -0.1481   -0.1440   -0.8342 N.am      1 <0>        -0.5687
     35 N5          4.2184   -1.0331    3.6724 N.am      1 <0>        -0.5746
     36 N6         -2.7729    2.3596    1.8159 N.pl3     1 <0>        -0.7533
     37 O1         -0.5534   -1.4727    1.0347 O.2       1 <0>        -0.5843
     38 O2          2.3230    0.2335    2.0409 O.2       1 <0>        -0.6812
     39 O3          5.2019   -3.1398    3.6875 O.2       1 <0>        -0.5788
     40 O4         12.1895    1.1984    1.7309 O.3       1 <0>        -0.4938
     41 O5          2.2611   -6.1715    2.5852 O.3       1 <0>        -0.6030
     42 O6         -2.2112   -1.2870   -2.3289 O.3       1 <0>        -0.5860
     43 O7          6.6827   -0.4452    4.9705 O.3       1 <0>        -0.6021
     44 H1          8.1360    1.8636    3.6469 H         1 <0>         0.1412
     45 H2          8.6262   -1.5102    1.0132 H         1 <0>         0.1451
     46 H3         10.4921    2.4937    3.2757 H         1 <0>         0.1336
     47 H4         10.9825   -0.8770    0.6437 H         1 <0>         0.1567
     48 H5          3.3605   -5.7937    0.1218 H         1 <0>         0.0649
     49 H6          2.4319   -5.4897   -1.3370 H         1 <0>         0.0476
     50 H7          0.3241   -5.6545   -0.1129 H         1 <0>         0.0641
     51 H8          1.3294   -7.0545    0.2691 H         1 <0>         0.0484
     52 H9          0.5754   -3.3919   -0.8000 H         1 <0>         0.0596
     53 H10         1.8977   -2.7914   -1.8003 H         1 <0>         0.0757
     54 H11         1.0807   -3.9085    3.1823 H         1 <0>         0.0782
     55 H12         0.1523   -3.7376    1.7002 H         1 <0>         0.0812
     56 H13         2.2202   -0.8626   -0.4249 H         1 <0>         0.0731
     57 H14         3.5726   -3.4842   -0.2571 H         1 <0>         0.0511
     58 H15         3.1875   -3.5701    2.0864 H         1 <0>         0.0753
     59 H16         0.2435   -6.1003    2.3075 H         1 <0>         0.0427
     60 H17         4.2001   -1.1859    7.4289 H         1 <0>         0.0450
     61 H18         4.0203    0.2482    6.4220 H         1 <0>         0.0406
     62 H19         4.5693   -1.2752    5.6986 H         1 <0>         0.0274
     63 H20         2.8852   -3.3113    5.6789 H         1 <0>         0.0476
     64 H21         2.5335   -3.0185    7.3913 H         1 <0>         0.0170
     65 H22         1.2173   -3.0301    6.2104 H         1 <0>         0.0477
     66 H23         6.4066   -0.7130    1.6653 H         1 <0>         0.0814
     67 H24         6.2170    0.6714    2.7209 H         1 <0>         0.0685
     68 H25         0.3900    2.0675    0.6783 H         1 <0>         0.1016
     69 H26        -0.5969    3.5252    0.7212 H         1 <0>         0.0660
     70 H27        -0.7150    2.4492   -1.5148 H         1 <0>         0.0512
     71 H28        -2.2909    2.4892   -0.7497 H         1 <0>         0.0454
     72 H29         0.9469   -1.1516    4.5828 H         1 <0>         0.0575
     73 H30         2.0032    0.2464    4.6399 H         1 <0>         0.0743
     74 H31        -0.9365    2.1672    2.7695 H         1 <0>         0.0662
     75 H32        -1.4303    0.7749    1.7956 H         1 <0>         0.0622
     76 H33        -1.5587    0.5035   -3.0917 H         1 <0>         0.0321
     77 H34        -3.1279    0.5382   -2.2680 H         1 <0>         0.0204
     78 H35         2.8203   -2.5449    3.6159 H         1 <0>         0.0749
     79 H36         7.4436   -1.9436    3.7993 H         1 <0>         0.0719
     80 H37         1.7968   -0.7138    6.8816 H         1 <0>         0.0609
     81 H38        -2.0581    0.1260   -0.0837 H         1 <0>         0.1063
     82 H39        -5.3256    3.1354    1.9980 H         1 <0>         0.4792
     83 H40        -5.7176    2.2253    3.4232 H         1 <0>         0.4819
     84 H41        -2.4415    0.7328    3.8691 H         1 <0>         0.4802
     85 H42        -4.0571    0.8362    4.5071 H         1 <0>         0.4826
     86 H43         0.5534    0.0962   -1.5282 H         1 <0>         0.3101
     87 H44         4.4137   -0.0309    3.6864 H         1 <0>         0.3087
     88 H45        -3.0838    3.0087    1.0829 H         1 <0>         0.4846
     89 H46        12.5567    1.6117    2.5285 H         1 <0>         0.4194
     90 H47         2.7873   -5.4145    2.8873 H         1 <0>         0.4036
     91 H48        -1.3448   -1.6067   -2.6281 H         1 <0>         0.4114
     92 H49         7.0545    0.4233    4.7455 H         1 <0>         0.3944
@<TRIPOS>BOND
     1    1    3 ar
     2    1    5 ar
     3    2    4 ar
     4    2    5 ar
     5    3    6 ar
     6    4    6 ar
     7    5   21 1
     8    6   40 1
     9    7   15 1
    10    7   34 am
    11    7   37 2
    12    8   27 1
    13    8   31 am
    14    8   38 2
    15    9   28 1
    16    9   35 am
    17    9   39 2
    18   10   32 1
    19   10   33 1
    20   10   36 1
    21   11   12 1
    22   11   16 1
    23   12   18 1
    24   13   15 1
    25   13   16 1
    26   14   17 1
    27   14   18 1
    28   15   31 1
    29   16   17 1
    30   17   31 1
    31   18   41 1
    32   19   29 1
    33   20   29 1
    34   21   28 1
    35   22   23 1
    36   22   25 1
    37   23   30 1
    38   24   27 1
    39   24   29 1
    40   25   36 1
    41   26   30 1
    42   26   42 1
    43   27   35 1
    44   28   43 1
    45   30   34 1
    46    1   44 1
    47    2   45 1
    48    3   46 1
    49    4   47 1
    50   11   48 1
    51   11   49 1
    52   12   50 1
    53   12   51 1
    54   13   52 1
    55   13   53 1
    56   14   54 1
    57   14   55 1
    58   15   56 1
    59   16   57 1
    60   17   58 1
    61   18   59 1
    62   19   60 1
    63   19   61 1
    64   19   62 1
    65   20   63 1
    66   20   64 1
    67   20   65 1
    68   21   66 1
    69   21   67 1
    70   22   68 1
    71   22   69 1
    72   23   70 1
    73   23   71 1
    74   24   72 1
    75   24   73 1
    76   25   74 1
    77   25   75 1
    78   26   76 1
    79   26   77 1
    80   27   78 1
    81   28   79 1
    82   29   80 1
    83   30   81 1
    84   32   82 1
    85   32   83 1
    86   33   84 1
    87   33   85 1
    88   34   86 1
    89   35   87 1
    90   36   88 1
    91   40   89 1
    92   41   90 1
    93   42   91 1
    94   43   92 1
@<TRIPOS>MOLECULE
1a2c_ligand_139
   92    94     0     0     0
SMALL
USER_CHARGES

mmff94s_NoEstat = 112.55
@<TRIPOS>ATOM
      1 C1         -7.7406   -5.8466   -1.9356 C.ar      1 <0>        -0.0708
      2 C2         -8.3593   -3.7116   -0.9890 C.ar      1 <0>        -0.0872
      3 C3         -9.0787   -6.2403   -1.9220 C.ar      1 <0>        -0.2241
      4 C4         -9.6974   -4.1053   -0.9755 C.ar      1 <0>        -0.1600
      5 C5         -7.3989   -4.5875   -1.4689 C.ar      1 <0>        -0.1356
      6 C6        -10.0571   -5.3697   -1.4420 C.ar      1 <0>         0.1290
      7 C7         -0.0512   -1.0561    0.2993 C.2       1 <0>         0.6664
      8 C8         -1.8469   -3.0457    2.1630 C.2       1 <0>         0.6651
      9 C9         -3.9484   -3.7154   -0.0348 C.2       1 <0>         0.6454
     10 C10        -4.0116    5.1557   -0.3824 C.cat     1 <0>         0.6349
     11 C11         2.5186   -3.1911    0.6823 C.3       1 <0>        -0.0642
     12 C12         2.4580   -4.6414    0.2376 C.3       1 <0>        -0.0747
     13 C13         1.4874   -1.4827    2.2418 C.3       1 <0>        -0.0873
     14 C14         0.4946   -5.0934    1.7133 C.3       1 <0>        -0.1371
     15 C15         0.0412   -1.4176    1.7503 C.3       1 <0>         0.0360
     16 C16         1.8865   -2.9529    2.0632 C.3       1 <0>        -0.0720
     17 C17         0.5665   -3.7001    2.3454 C.3       1 <0>         0.1201
     18 C18         1.0248   -5.1525    0.2868 C.3       1 <0>         0.1453
     19 C19        -5.5746   -0.7475    1.4860 C.3       1 <0>        -0.0968
     20 C20        -3.7112    0.7464    0.7408 C.3       1 <0>        -0.0986
     21 C21        -5.9503   -4.1611   -1.4843 C.3       1 <0>        -0.0191
     22 C22        -1.2019    2.6554   -0.7648 C.3       1 <0>        -0.1009
     23 C23        -0.8794    1.4488   -1.6540 C.3       1 <0>        -0.0942
     24 C24        -3.2372   -1.0062    2.4788 C.3       1 <0>        -0.0988
     25 C25        -2.5638    3.2498   -1.1169 C.3       1 <0>         0.1966
     26 C26         1.6856    1.6412   -1.5001 C.3       1 <0>         0.1128
     27 C27        -2.8325   -2.1090    1.5076 C.3       1 <0>         0.0786
     28 C28        -5.2285   -4.5282   -0.1835 C.3       1 <0>         0.0744
     29 C29        -4.2955   -0.0321    1.9228 C.3       1 <0>        -0.0678
     30 C30         0.4555    0.7445   -1.3388 C.3       1 <0>         0.1065
     31 N1         -0.4979   -2.7598    1.9615 N.am      1 <0>        -0.4315
     32 N2         -4.2357    6.2444    0.4539 N.pl3     1 <0>        -0.8671
     33 N3         -4.9668    4.8273   -1.3383 N.pl3     1 <0>        -0.8581
     34 N4          0.4455    0.1980   -0.0008 N.am      1 <0>        -0.5687
     35 N5         -3.9193   -2.9688    1.1410 N.am      1 <0>        -0.5746
     36 N6         -2.8388    4.3887   -0.2734 N.pl3     1 <0>        -0.7533
     37 O1         -0.5362   -1.8555   -0.4928 O.2       1 <0>        -0.5843
     38 O2         -2.2659   -3.9924    2.8322 O.2       1 <0>        -0.6812
     39 O3         -3.0587   -3.7239   -0.8825 O.2       1 <0>        -0.5788
     40 O4        -11.3630   -5.7533   -1.4303 O.3       1 <0>        -0.4938
     41 O5          0.9879   -6.5072   -0.1510 O.3       1 <0>        -0.6030
     42 O6          2.8639    0.9021   -1.2063 O.3       1 <0>        -0.5860
     43 O7         -4.8793   -5.9045   -0.2220 O.3       1 <0>        -0.6021
     44 H1         -6.9855   -6.5318   -2.3112 H         1 <0>         0.1412
     45 H2         -8.0882   -2.7244   -0.6238 H         1 <0>         0.1451
     46 H3         -9.3526   -7.2263   -2.2868 H         1 <0>         0.1336
     47 H4        -10.4552   -3.4221   -0.6011 H         1 <0>         0.1567
     48 H5          3.5627   -2.8549    0.7003 H         1 <0>         0.0649
     49 H6          2.0259   -2.5829   -0.0837 H         1 <0>         0.0476
     50 H7          2.8567   -4.7427   -0.7790 H         1 <0>         0.0641
     51 H8          3.1032   -5.2618    0.8729 H         1 <0>         0.0484
     52 H9          2.1569   -0.7868    1.7257 H         1 <0>         0.0596
     53 H10         1.5124   -1.2395    3.3116 H         1 <0>         0.0757
     54 H11         1.0921   -5.7802    2.3299 H         1 <0>         0.0782
     55 H12        -0.5175   -5.5090    1.7393 H         1 <0>         0.0812
     56 H13        -0.5378   -0.6778    2.3126 H         1 <0>         0.0731
     57 H14         2.6304   -3.2407    2.8169 H         1 <0>         0.0511
     58 H15         0.4523   -3.8218    3.4319 H         1 <0>         0.0753
     59 H16         0.3841   -4.5700   -0.3844 H         1 <0>         0.0427
     60 H17        -6.2768   -0.0422    1.0282 H         1 <0>         0.0450
     61 H18        -6.0867   -1.2049    2.3377 H         1 <0>         0.0406
     62 H19        -5.3599   -1.5330    0.7535 H         1 <0>         0.0274
     63 H20        -3.4369    0.0757   -0.0807 H         1 <0>         0.0476
     64 H21        -4.4352    1.4732    0.3573 H         1 <0>         0.0170
     65 H22        -2.8146    1.2981    1.0427 H         1 <0>         0.0477
     66 H23        -5.8960   -3.0770   -1.6519 H         1 <0>         0.0814
     67 H24        -5.4639   -4.6227   -2.3527 H         1 <0>         0.0685
     68 H25        -1.2036    2.3575    0.2901 H         1 <0>         0.1016
     69 H26        -0.4298    3.4262   -0.8760 H         1 <0>         0.0660
     70 H27        -0.8663    1.7736   -2.7033 H         1 <0>         0.0512
     71 H28        -1.6959    0.7195   -1.5759 H         1 <0>         0.0454
     72 H29        -2.3434   -0.4411    2.7760 H         1 <0>         0.0575
     73 H30        -3.6273   -1.4576    3.4018 H         1 <0>         0.0743
     74 H31        -3.3520    2.5022   -0.9783 H         1 <0>         0.0662
     75 H32        -2.5848    3.5678   -2.1644 H         1 <0>         0.0622
     76 H33         1.6463    2.5133   -0.8391 H         1 <0>         0.0321
     77 H34         1.7645    2.0016   -2.5321 H         1 <0>         0.0204
     78 H35        -2.3687   -1.7253    0.5998 H         1 <0>         0.0749
     79 H36        -5.8654   -4.3596    0.6929 H         1 <0>         0.0719
     80 H37        -4.5575    0.6951    2.7011 H         1 <0>         0.0609
     81 H38         0.5463   -0.0881   -2.0483 H         1 <0>         0.1063
     82 H39        -3.5669    6.5202    1.1680 H         1 <0>         0.4792
     83 H40        -5.0854    6.7983    0.3742 H         1 <0>         0.4819
     84 H41        -4.8350    4.0377   -1.9658 H         1 <0>         0.4802
     85 H42        -5.8222    5.3690   -1.4357 H         1 <0>         0.4826
     86 H43         0.8216    0.7626    0.7549 H         1 <0>         0.3101
     87 H44        -4.7157   -3.0377    1.7764 H         1 <0>         0.3087
     88 H45        -2.1673    4.6753    0.4493 H         1 <0>         0.4846
     89 H46       -11.4312   -6.7098   -1.2812 H         1 <0>         0.4194
     90 H47         1.8515   -6.8926    0.0654 H         1 <0>         0.4036
     91 H48         2.9483    0.8828   -0.2393 H         1 <0>         0.4114
     92 H49        -5.4048   -6.3080   -0.9320 H         1 <0>         0.3944
@<TRIPOS>BOND
     1    1    3 ar
     2    1    5 ar
     3    2    4 ar
     4    2    5 ar
     5    3    6 ar
     6    4    6 ar
     7    5   21 1
     8    6   40 1
     9    7   15 1
    10    7   34 am
    11    7   37 2
    12    8   27 1
    13    8   31 am
    14    8   38 2
    15    9   28 1
    16    9   35 am
    17    9   39 2
    18   10   32 1
    19   10   33 1
    20   10   36 1
    21   11   12 1
    22   11   16 1
    23   12   18 1
    24   13   15 1
    25   13   16 1
    26   14   17 1
    27   14   18 1
    28   15   31 1
    29   16   17 1
    30   17   31 1
    31   18   41 1
    32   19   29 1
    33   20   29 1
    34   21   28 1
    35   22   23 1
    36   22   25 1
    37   23   30 1
    38   24   27 1
    39   24   29 1
    40   25   36 1
    41   26   30 1
    42   26   42 1
    43   27   35 1
    44   28   43 1
    45   30   34 1
    46    1   44 1
    47    2   45 1
    48    3   46 1
    49    4   47 1
    50   11   48 1
    51   11   49 1
    52   12   50 1
    53   12   51 1
    54   13   52 1
    55   13   53 1
    56   14   54 1
    57   14   55 1
    58   15   56 1
    59   16   57 1
    60   17   58 1
    61   18   59 1
    62   19   60 1
    63   19   61 1
    64   19   62 1
    65   20   63 1
    66   20   64 1
    67   20   65 1
    68   21   66 1
    69   21   67 1
    70   22   68 1
    71   22   69 1
    72   23   70 1
    73   23   71 1
    74   24   72 1
    75   24   73 1
    76   25   74 1
    77   25   75 1
    78   26   76 1
    79   26   77 1
    80   27   78 1
    81   28   79 1
    82   29   80 1
    83   30   81 1
    84   32   82 1
    85   32   83 1
    86   33   84 1
    87   33   85 1
    88   34   86 1
    89   35   87 1
    90   36   88 1
    91   40   89 1
    92   41   90 1
    93   42   91 1
    94   43   92 1
@<TRIPOS>MOLECULE
1a2c_ligand_140
   92    94     0     0     0
SMALL
USER_CHARGES

mmff94s_NoEstat = 112.60
@<TRIPOS>ATOM
      1 C1          7.4135   -1.5923    6.5285 C.ar      1 <0>        -0.0708
      2 C2          6.2576   -3.5017    5.6037 C.ar      1 <0>        -0.0872
      3 C3          6.9411   -1.9217    7.7989 C.ar      1 <0>        -0.2241
      4 C4          5.7852   -3.8311    6.8742 C.ar      1 <0>        -0.1600
      5 C5          7.0655   -2.3867    5.4480 C.ar      1 <0>        -0.1356
      6 C6          6.1269   -3.0411    7.9718 C.ar      1 <0>         0.1290
      7 C7          0.1755   -1.0766    0.1327 C.2       1 <0>         0.6664
      8 C8          2.3785   -0.9757    2.2764 C.2       1 <0>         0.6651
      9 C9          5.2695   -1.7615    3.1198 C.2       1 <0>         0.6454
     10 C10        -0.7921    3.5473    2.6713 C.cat     1 <0>         0.6349
     11 C11         2.4521   -5.3069   -0.2561 C.3       1 <0>        -0.0642
     12 C12         1.2413   -5.9691    0.3982 C.3       1 <0>        -0.0747
     13 C13         1.5734   -2.9393   -0.7647 C.3       1 <0>        -0.0873
     14 C14         1.0938   -4.1277    2.1072 C.3       1 <0>        -0.1371
     15 C15         1.5650   -1.6216    0.0133 C.3       1 <0>         0.0360
     16 C16         2.5597   -3.8106    0.0203 C.3       1 <0>        -0.0720
     17 C17         2.2934   -3.4012    1.4755 C.3       1 <0>         0.1201
     18 C18         1.1411   -5.6363    1.8853 C.3       1 <0>         0.1453
     19 C19         3.8896   -0.8379    6.4377 C.3       1 <0>        -0.0968
     20 C20         2.2599   -2.7349    6.3694 C.3       1 <0>        -0.0986
     21 C21         7.5775   -2.0305    4.0727 C.3       1 <0>        -0.0191
     22 C22        -0.8392    2.2664   -0.8852 C.3       1 <0>        -0.1009
     23 C23        -1.6754    1.2905   -1.7214 C.3       1 <0>        -0.0942
     24 C24         1.9925   -0.8489    4.7298 C.3       1 <0>        -0.0988
     25 C25        -1.3442    2.3298    0.5545 C.3       1 <0>         0.1966
     26 C26        -2.5783   -1.1036   -2.0263 C.3       1 <0>         0.1128
     27 C27         2.8496   -1.4560    3.6253 C.3       1 <0>         0.0786
     28 C28         6.6222   -1.0920    3.3282 C.3       1 <0>         0.0744
     29 C29         2.4383   -1.2292    6.1562 C.3       1 <0>        -0.0678
     30 C30        -1.7203   -0.1547   -1.1858 C.3       1 <0>         0.1065
     31 N1          2.0322   -1.9586    1.3590 N.am      1 <0>        -0.4315
     32 N2          0.0035    4.4513    3.3675 N.pl3     1 <0>        -0.8671
     33 N3         -1.8434    2.9208    3.3318 N.pl3     1 <0>        -0.8581
     34 N4         -0.3878   -0.7030   -1.0725 N.am      1 <0>        -0.5687
     35 N5          4.2184   -1.0331    3.6724 N.am      1 <0>        -0.5746
     36 N6         -0.5475    3.2615    1.3170 N.pl3     1 <0>        -0.7533
     37 O1         -0.3509   -1.0007    1.2367 O.2       1 <0>        -0.5843
     38 O2          2.3230    0.2335    2.0409 O.2       1 <0>        -0.6812
     39 O3          5.1476   -2.8360    2.5359 O.2       1 <0>        -0.5788
     40 O4          5.6673   -3.3634    9.2118 O.3       1 <0>        -0.4938
     41 O5          2.2611   -6.1715    2.5852 O.3       1 <0>        -0.6030
     42 O6         -2.5724   -2.4015   -1.4465 O.3       1 <0>        -0.5860
     43 O7          7.1708   -0.7917    2.0529 O.3       1 <0>        -0.6021
     44 H1          8.0470   -0.7183    6.4037 H         1 <0>         0.1412
     45 H2          5.9865   -4.1232    4.7542 H         1 <0>         0.1451
     46 H3          7.2108   -1.3025    8.6499 H         1 <0>         0.1336
     47 H4          5.1520   -4.7050    7.0026 H         1 <0>         0.1567
     48 H5          3.3605   -5.7937    0.1218 H         1 <0>         0.0649
     49 H6          2.4319   -5.4897   -1.3370 H         1 <0>         0.0476
     50 H7          0.3241   -5.6545   -0.1129 H         1 <0>         0.0641
     51 H8          1.3294   -7.0545    0.2691 H         1 <0>         0.0484
     52 H9          0.5754   -3.3919   -0.8000 H         1 <0>         0.0596
     53 H10         1.8977   -2.7914   -1.8003 H         1 <0>         0.0757
     54 H11         1.0807   -3.9085    3.1823 H         1 <0>         0.0782
     55 H12         0.1523   -3.7376    1.7002 H         1 <0>         0.0812
     56 H13         2.2202   -0.8626   -0.4249 H         1 <0>         0.0731
     57 H14         3.5726   -3.4842   -0.2571 H         1 <0>         0.0511
     58 H15         3.1875   -3.5701    2.0864 H         1 <0>         0.0753
     59 H16         0.2435   -6.1003    2.3075 H         1 <0>         0.0427
     60 H17         4.2001   -1.1859    7.4289 H         1 <0>         0.0450
     61 H18         4.0203    0.2482    6.4220 H         1 <0>         0.0406
     62 H19         4.5693   -1.2752    5.6986 H         1 <0>         0.0274
     63 H20         2.8852   -3.3113    5.6789 H         1 <0>         0.0476
     64 H21         2.5335   -3.0185    7.3913 H         1 <0>         0.0170
     65 H22         1.2173   -3.0301    6.2104 H         1 <0>         0.0477
     66 H23         7.7267   -2.9521    3.4943 H         1 <0>         0.0814
     67 H24         8.5725   -1.5809    4.1808 H         1 <0>         0.0685
     68 H25         0.2122    1.9562   -0.8821 H         1 <0>         0.1016
     69 H26        -0.8730    3.2698   -1.3263 H         1 <0>         0.0660
     70 H27        -1.2820    1.2733   -2.7469 H         1 <0>         0.0512
     71 H28        -2.7004    1.6751   -1.7996 H         1 <0>         0.0454
     72 H29         0.9469   -1.1516    4.5828 H         1 <0>         0.0575
     73 H30         2.0032    0.2464    4.6399 H         1 <0>         0.0743
     74 H31        -1.2851    1.3411    1.0218 H         1 <0>         0.0662
     75 H32        -2.3909    2.6501    0.5805 H         1 <0>         0.0622
     76 H33        -2.2157   -1.1795   -3.0567 H         1 <0>         0.0321
     77 H34        -3.6169   -0.7550   -2.0576 H         1 <0>         0.0204
     78 H35         2.8203   -2.5449    3.6159 H         1 <0>         0.0749
     79 H36         6.4775   -0.1502    3.8705 H         1 <0>         0.0719
     80 H37         1.7968   -0.7138    6.8816 H         1 <0>         0.0609
     81 H38        -2.1562   -0.1031   -0.1797 H         1 <0>         0.1063
     82 H39         0.7836    4.9313    2.9267 H         1 <0>         0.4792
     83 H40        -0.1744    4.6567    4.3479 H         1 <0>         0.4819
     84 H41        -2.4446    2.2546    2.8530 H         1 <0>         0.4802
     85 H42        -2.0394    3.1134    4.3112 H         1 <0>         0.4826
     86 H43         0.1607   -0.8193   -1.9192 H         1 <0>         0.3101
     87 H44         4.4349   -0.1495    4.1364 H         1 <0>         0.3087
     88 H45         0.2413    3.7522    0.8785 H         1 <0>         0.4846
     89 H46         5.5274   -2.5600    9.7379 H         1 <0>         0.4194
     90 H47         2.7873   -5.4145    2.8873 H         1 <0>         0.4036
     91 H48        -1.7464   -2.8287   -1.7250 H         1 <0>         0.4114
     92 H49         8.1083   -1.0432    2.0839 H         1 <0>         0.3944
@<TRIPOS>BOND
     1    1    3 ar
     2    1    5 ar
     3    2    4 ar
     4    2    5 ar
     5    3    6 ar
     6    4    6 ar
     7    5   21 1
     8    6   40 1
     9    7   15 1
    10    7   34 am
    11    7   37 2
    12    8   27 1
    13    8   31 am
    14    8   38 2
    15    9   28 1
    16    9   35 am
    17    9   39 2
    18   10   32 1
    19   10   33 1
    20   10   36 1
    21   11   12 1
    22   11   16 1
    23   12   18 1
    24   13   15 1
    25   13   16 1
    26   14   17 1
    27   14   18 1
    28   15   31 1
    29   16   17 1
    30   17   31 1
    31   18   41 1
    32   19   29 1
    33   20   29 1
    34   21   28 1
    35   22   23 1
    36   22   25 1
    37   23   30 1
    38   24   27 1
    39   24   29 1
    40   25   36 1
    41   26   30 1
    42   26   42 1
    43   27   35 1
    44   28   43 1
    45   30   34 1
    46    1   44 1
    47    2   45 1
    48    3   46 1
    49    4   47 1
    50   11   48 1
    51   11   49 1
    52   12   50 1
    53   12   51 1
    54   13   52 1
    55   13   53 1
    56   14   54 1
    57   14   55 1
    58   15   56 1
    59   16   57 1
    60   17   58 1
    61   18   59 1
    62   19   60 1
    63   19   61 1
    64   19   62 1
    65   20   63 1
    66   20   64 1
    67   20   65 1
    68   21   66 1
    69   21   67 1
    70   22   68 1
    71   22   69 1
    72   23   70 1
    73   23   71 1
    74   24   72 1
    75   24   73 1
    76   25   74 1
    77   25   75 1
    78   26   76 1
    79   26   77 1
    80   27   78 1
    81   28   79 1
    82   29   80 1
    83   30   81 1
    84   32   82 1
    85   32   83 1
    86   33   84 1
    87   33   85 1
    88   34   86 1
    89   35   87 1
    90   36   88 1
    91   40   89 1
    92   41   90 1
    93   42   91 1
    94   43   92 1
@<TRIPOS>MOLECULE
1a2c_ligand_141
   92    94     0     0     0
SMALL
USER_CHARGES

mmff94s_NoEstat = 112.74
@<TRIPOS>ATOM
      1 C1         -9.0710   -3.1012    0.0189 C.ar      1 <0>        -0.0708
      2 C2         -7.9646   -4.4965    1.6517 C.ar      1 <0>        -0.0872
      3 C3        -10.1182   -4.0195   -0.0562 C.ar      1 <0>        -0.2241
      4 C4         -9.0118   -5.4148    1.5766 C.ar      1 <0>        -0.1600
      5 C5         -8.0083   -3.3520    0.8718 C.ar      1 <0>        -0.1356
      6 C6        -10.0887   -5.1764    0.7226 C.ar      1 <0>         0.1290
      7 C7         -0.0512   -1.0561    0.2993 C.2       1 <0>         0.6664
      8 C8         -1.8469   -3.0457    2.1630 C.2       1 <0>         0.6651
      9 C9         -4.4743   -1.9575    0.3333 C.2       1 <0>         0.6454
     10 C10         0.1087    6.2839    0.0320 C.cat     1 <0>         0.6349
     11 C11         2.5186   -3.1911    0.6823 C.3       1 <0>        -0.0642
     12 C12         2.4580   -4.6414    0.2376 C.3       1 <0>        -0.0747
     13 C13         1.4874   -1.4827    2.2418 C.3       1 <0>        -0.0873
     14 C14         0.4946   -5.0934    1.7133 C.3       1 <0>        -0.1371
     15 C15         0.0412   -1.4176    1.7503 C.3       1 <0>         0.0360
     16 C16         1.8865   -2.9529    2.0632 C.3       1 <0>        -0.0720
     17 C17         0.5665   -3.7001    2.3454 C.3       1 <0>         0.1201
     18 C18         1.0248   -5.1525    0.2868 C.3       1 <0>         0.1453
     19 C19        -5.3726   -0.5418    3.1302 C.3       1 <0>        -0.0968
     20 C20        -3.4397    1.0389    2.9738 C.3       1 <0>        -0.0986
     21 C21        -6.8749   -2.3574    0.9537 C.3       1 <0>        -0.0191
     22 C22        -1.0374    2.7415   -0.6235 C.3       1 <0>        -0.1009
     23 C23         0.2513    2.2726   -1.3090 C.3       1 <0>        -0.0942
     24 C24        -2.9973   -1.3585    3.5851 C.3       1 <0>        -0.0988
     25 C25        -1.1758    4.2607   -0.6924 C.3       1 <0>         0.1966
     26 C26         1.7383    0.3016   -2.0469 C.3       1 <0>         0.1128
     27 C27        -2.7865   -1.8644    2.1628 C.3       1 <0>         0.0786
     28 C28        -5.7663   -2.6636   -0.0588 C.3       1 <0>         0.0744
     29 C29        -3.9969   -0.1898    3.6979 C.3       1 <0>        -0.0678
     30 C30         0.4555    0.7445   -1.3388 C.3       1 <0>         0.1065
     31 N1         -0.4979   -2.7598    1.9615 N.am      1 <0>        -0.4315
     32 N2          1.2089    6.8461    0.6711 N.pl3     1 <0>        -0.8671
     33 N3         -0.8437    7.1205   -0.5399 N.pl3     1 <0>        -0.8581
     34 N4          0.4455    0.1980   -0.0008 N.am      1 <0>        -0.5687
     35 N5         -3.9799   -2.3853    1.5634 N.am      1 <0>        -0.5746
     36 N6         -0.0506    4.8893   -0.0421 N.pl3     1 <0>        -0.7533
     37 O1         -0.5362   -1.8555   -0.4928 O.2       1 <0>        -0.5843
     38 O2         -2.2998   -4.1783    2.3409 O.2       1 <0>        -0.6812
     39 O3         -3.9527   -1.0962   -0.3713 O.2       1 <0>        -0.5788
     40 O4        -11.1113   -6.0717    0.6505 O.3       1 <0>        -0.4938
     41 O5          0.9879   -6.5072   -0.1510 O.3       1 <0>        -0.6030
     42 O6          2.8703    0.8436   -1.3793 O.3       1 <0>        -0.5860
     43 O7         -6.1634   -2.1870   -1.3365 O.3       1 <0>        -0.6021
     44 H1         -9.1028   -2.2030   -0.5918 H         1 <0>         0.1412
     45 H2         -7.1297   -4.6904    2.3201 H         1 <0>         0.1451
     46 H3        -10.9542   -3.8281   -0.7231 H         1 <0>         0.1336
     47 H4         -8.9835   -6.3139    2.1866 H         1 <0>         0.1567
     48 H5          3.5627   -2.8549    0.7003 H         1 <0>         0.0649
     49 H6          2.0259   -2.5829   -0.0837 H         1 <0>         0.0476
     50 H7          2.8567   -4.7427   -0.7790 H         1 <0>         0.0641
     51 H8          3.1032   -5.2618    0.8729 H         1 <0>         0.0484
     52 H9          2.1569   -0.7868    1.7257 H         1 <0>         0.0596
     53 H10         1.5124   -1.2395    3.3116 H         1 <0>         0.0757
     54 H11         1.0921   -5.7802    2.3299 H         1 <0>         0.0782
     55 H12        -0.5175   -5.5090    1.7393 H         1 <0>         0.0812
     56 H13        -0.5378   -0.6778    2.3126 H         1 <0>         0.0731
     57 H14         2.6304   -3.2407    2.8169 H         1 <0>         0.0511
     58 H15         0.4523   -3.8218    3.4319 H         1 <0>         0.0753
     59 H16         0.3841   -4.5700   -0.3844 H         1 <0>         0.0427
     60 H17        -6.0375    0.3284    3.1563 H         1 <0>         0.0450
     61 H18        -5.8542   -1.3328    3.7128 H         1 <0>         0.0406
     62 H19        -5.2988   -0.8789    2.0908 H         1 <0>         0.0274
     63 H20        -3.3028    0.8425    1.9049 H         1 <0>         0.0476
     64 H21        -4.1178    1.8926    3.0773 H         1 <0>         0.0170
     65 H22        -2.4708    1.3315    3.3922 H         1 <0>         0.0477
     66 H23        -6.4655   -2.3612    1.9727 H         1 <0>         0.0814
     67 H24        -7.2864   -1.3519    0.8004 H         1 <0>         0.0685
     68 H25        -1.9092    2.2808   -1.1025 H         1 <0>         0.1016
     69 H26        -1.0467    2.4234    0.4259 H         1 <0>         0.0660
     70 H27         1.1110    2.7323   -0.8028 H         1 <0>         0.0512
     71 H28         0.2685    2.6560   -2.3373 H         1 <0>         0.0454
     72 H29        -2.0302   -1.0518    4.0061 H         1 <0>         0.0575
     73 H30        -3.3514   -2.1846    4.2177 H         1 <0>         0.0743
     74 H31        -2.0997    4.5809   -0.1994 H         1 <0>         0.0662
     75 H32        -1.2190    4.5954   -1.7340 H         1 <0>         0.0622
     76 H33         1.7614    0.6251   -3.0928 H         1 <0>         0.0321
     77 H34         1.8289   -0.7905   -2.0281 H         1 <0>         0.0204
     78 H35        -2.3647   -1.1082    1.5019 H         1 <0>         0.0749
     79 H36        -5.5777   -3.7409   -0.1372 H         1 <0>         0.0719
     80 H37        -4.1195    0.0762    4.7551 H         1 <0>         0.0609
     81 H38        -0.3978    0.3245   -1.8868 H         1 <0>         0.1063
     82 H39         1.9287    6.2742    1.1048 H         1 <0>         0.4792
     83 H40         1.3225    7.8557    0.7245 H         1 <0>         0.4819
     84 H41        -1.6601    6.7429   -1.0146 H         1 <0>         0.4802
     85 H42        -0.7481    8.1323   -0.4992 H         1 <0>         0.4826
     86 H43         0.8216    0.7626    0.7549 H         1 <0>         0.3101
     87 H44        -4.4957   -3.1095    2.0656 H         1 <0>         0.3087
     88 H45         0.6822    4.3187    0.3968 H         1 <0>         0.4846
     89 H46       -11.4852   -6.0838   -0.2450 H         1 <0>         0.4194
     90 H47         1.8515   -6.8926    0.0654 H         1 <0>         0.4036
     91 H48         2.9636    1.7601   -1.6856 H         1 <0>         0.4114
     92 H49        -7.1203   -2.0275   -1.2920 H         1 <0>         0.3944
@<TRIPOS>BOND
     1    1    3 ar
     2    1    5 ar
     3    2    4 ar
     4    2    5 ar
     5    3    6 ar
     6    4    6 ar
     7    5   21 1
     8    6   40 1
     9    7   15 1
    10    7   34 am
    11    7   37 2
    12    8   27 1
    13    8   31 am
    14    8   38 2
    15    9   28 1
    16    9   35 am
    17    9   39 2
    18   10   32 1
    19   10   33 1
    20   10   36 1
    21   11   12 1
    22   11   16 1
    23   12   18 1
    24   13   15 1
    25   13   16 1
    26   14   17 1
    27   14   18 1
    28   15   31 1
    29   16   17 1
    30   17   31 1
    31   18   41 1
    32   19   29 1
    33   20   29 1
    34   21   28 1
    35   22   23 1
    36   22   25 1
    37   23   30 1
    38   24   27 1
    39   24   29 1
    40   25   36 1
    41   26   30 1
    42   26   42 1
    43   27   35 1
    44   28   43 1
    45   30   34 1
    46    1   44 1
    47    2   45 1
    48    3   46 1
    49    4   47 1
    50   11   48 1
    51   11   49 1
    52   12   50 1
    53   12   51 1
    54   13   52 1
    55   13   53 1
    56   14   54 1
    57   14   55 1
    58   15   56 1
    59   16   57 1
    60   17   58 1
    61   18   59 1
    62   19   60 1
    63   19   61 1
    64   19   62 1
    65   20   63 1
    66   20   64 1
    67   20   65 1
    68   21   66 1
    69   21   67 1
    70   22   68 1
    71   22   69 1
    72   23   70 1
    73   23   71 1
    74   24   72 1
    75   24   73 1
    76   25   74 1
    77   25   75 1
    78   26   76 1
    79   26   77 1
    80   27   78 1
    81   28   79 1
    82   29   80 1
    83   30   81 1
    84   32   82 1
    85   32   83 1
    86   33   84 1
    87   33   85 1
    88   34   86 1
    89   35   87 1
    90   36   88 1
    91   40   89 1
    92   41   90 1
    93   42   91 1
    94   43   92 1
@<TRIPOS>MOLECULE
1a2c_ligand_142
   92    94     0     0     0
SMALL
USER_CHARGES

mmff94s_NoEstat = 113.00
@<TRIPOS>ATOM
      1 C1         -7.1365   -2.8677   -2.9678 C.ar      1 <0>        -0.0708
      2 C2         -5.7068   -0.9564   -2.5937 C.ar      1 <0>        -0.0872
      3 C3         -8.2603   -2.0492   -2.8547 C.ar      1 <0>        -0.2241
      4 C4         -6.8306   -0.1379   -2.4807 C.ar      1 <0>        -0.1600
      5 C5         -5.8748   -2.3103   -2.8358 C.ar      1 <0>        -0.1356
      6 C6         -8.1073   -0.6843   -2.6112 C.ar      1 <0>         0.1290
      7 C7         -0.0512   -1.0561    0.2993 C.2       1 <0>         0.6664
      8 C8         -1.8469   -3.0457    2.1630 C.2       1 <0>         0.6651
      9 C9         -3.4040   -2.7670   -0.8258 C.2       1 <0>         0.6454
     10 C10        -3.7050    4.2413   -3.1125 C.cat     1 <0>         0.6349
     11 C11         2.5186   -3.1911    0.6823 C.3       1 <0>        -0.0642
     12 C12         2.4580   -4.6414    0.2376 C.3       1 <0>        -0.0747
     13 C13         1.4874   -1.4827    2.2418 C.3       1 <0>        -0.0873
     14 C14         0.4946   -5.0934    1.7133 C.3       1 <0>        -0.1371
     15 C15         0.0412   -1.4176    1.7503 C.3       1 <0>         0.0360
     16 C16         1.8865   -2.9529    2.0632 C.3       1 <0>        -0.0720
     17 C17         0.5665   -3.7001    2.3454 C.3       1 <0>         0.1201
     18 C18         1.0248   -5.1525    0.2868 C.3       1 <0>         0.1453
     19 C19        -5.7275   -1.2982    0.9287 C.3       1 <0>        -0.0968
     20 C20        -4.2097    0.6462    1.3473 C.3       1 <0>        -0.0986
     21 C21        -4.6582   -3.1963   -2.9589 C.3       1 <0>        -0.0191
     22 C22        -1.2019    2.6554   -0.7648 C.3       1 <0>        -0.1009
     23 C23        -0.8794    1.4488   -1.6540 C.3       1 <0>        -0.0942
     24 C24        -3.7699   -1.5150    2.5525 C.3       1 <0>        -0.0988
     25 C25        -2.5638    3.2498   -1.1169 C.3       1 <0>         0.1966
     26 C26         1.6856    1.6412   -1.5001 C.3       1 <0>         0.1128
     27 C27        -2.8325   -2.1090    1.5076 C.3       1 <0>         0.0786
     28 C28        -4.2317   -3.7794   -1.6077 C.3       1 <0>         0.0744
     29 C29        -4.8597   -0.5919    1.9712 C.3       1 <0>        -0.0678
     30 C30         0.4555    0.7445   -1.3388 C.3       1 <0>         0.1065
     31 N1         -0.4979   -2.7598    1.9615 N.am      1 <0>        -0.4315
     32 N2         -3.6699    4.6391   -4.4450 N.pl3     1 <0>        -0.8671
     33 N3         -4.8785    4.4093   -2.3855 N.pl3     1 <0>        -0.8581
     34 N4          0.4455    0.1980   -0.0008 N.am      1 <0>        -0.5687
     35 N5         -3.5026   -2.9419    0.5527 N.am      1 <0>        -0.5746
     36 N6         -2.5755    3.6752   -2.4964 N.pl3     1 <0>        -0.7533
     37 O1         -0.5362   -1.8555   -0.4928 O.2       1 <0>        -0.5843
     38 O2         -2.2659   -3.9924    2.8322 O.2       1 <0>        -0.6812
     39 O3         -2.7407   -1.8909   -1.3761 O.2       1 <0>        -0.5788
     40 O4         -9.2039    0.1147   -2.5025 O.3       1 <0>        -0.4938
     41 O5          0.9879   -6.5072   -0.1510 O.3       1 <0>        -0.6030
     42 O6          2.8639    0.9021   -1.2063 O.3       1 <0>        -0.5860
     43 O7         -3.4297   -4.9297   -1.8337 O.3       1 <0>        -0.6021
     44 H1         -7.2656   -3.9298   -3.1574 H         1 <0>         0.1412
     45 H2         -4.7158   -0.5219   -2.4909 H         1 <0>         0.1451
     46 H3         -9.2520   -2.4807   -2.9575 H         1 <0>         0.1336
     47 H4         -6.7049    0.9250   -2.2918 H         1 <0>         0.1567
     48 H5          3.5627   -2.8549    0.7003 H         1 <0>         0.0649
     49 H6          2.0259   -2.5829   -0.0837 H         1 <0>         0.0476
     50 H7          2.8567   -4.7427   -0.7790 H         1 <0>         0.0641
     51 H8          3.1032   -5.2618    0.8729 H         1 <0>         0.0484
     52 H9          2.1569   -0.7868    1.7257 H         1 <0>         0.0596
     53 H10         1.5124   -1.2395    3.3116 H         1 <0>         0.0757
     54 H11         1.0921   -5.7802    2.3299 H         1 <0>         0.0782
     55 H12        -0.5175   -5.5090    1.7393 H         1 <0>         0.0812
     56 H13        -0.5378   -0.6778    2.3126 H         1 <0>         0.0731
     57 H14         2.6304   -3.2407    2.8169 H         1 <0>         0.0511
     58 H15         0.4523   -3.8218    3.4319 H         1 <0>         0.0753
     59 H16         0.3841   -4.5700   -0.3844 H         1 <0>         0.0427
     60 H17        -6.4424   -0.5993    0.4810 H         1 <0>         0.0450
     61 H18        -6.3080   -2.1101    1.3767 H         1 <0>         0.0406
     62 H19        -5.1167   -1.7184    0.1225 H         1 <0>         0.0274
     63 H20        -3.5507    0.3732    0.5159 H         1 <0>         0.0476
     64 H21        -4.9709    1.3343    0.9644 H         1 <0>         0.0170
     65 H22        -3.6139    1.1889    2.0888 H         1 <0>         0.0477
     66 H23        -3.8338   -2.6171   -3.3960 H         1 <0>         0.0814
     67 H24        -4.8817   -3.9909   -3.6819 H         1 <0>         0.0685
     68 H25        -1.2036    2.3575    0.2901 H         1 <0>         0.1016
     69 H26        -0.4298    3.4262   -0.8760 H         1 <0>         0.0660
     70 H27        -0.8663    1.7736   -2.7033 H         1 <0>         0.0512
     71 H28        -1.6959    0.7195   -1.5759 H         1 <0>         0.0454
     72 H29        -3.1790   -0.9587    3.2928 H         1 <0>         0.0575
     73 H30        -4.2588   -2.3274    3.1083 H         1 <0>         0.0743
     74 H31        -2.7806    4.1099   -0.4745 H         1 <0>         0.0662
     75 H32        -3.3565    2.5102   -0.9645 H         1 <0>         0.0622
     76 H33         1.6463    2.5133   -0.8391 H         1 <0>         0.0321
     77 H34         1.7645    2.0016   -2.5321 H         1 <0>         0.0204
     78 H35        -2.2612   -1.3523    0.9714 H         1 <0>         0.0749
     79 H36        -5.0980   -4.0774   -1.0053 H         1 <0>         0.0719
     80 H37        -5.5109   -0.2494    2.7849 H         1 <0>         0.0609
     81 H38         0.5463   -0.0881   -2.0483 H         1 <0>         0.1063
     82 H39        -2.8341    4.5376   -5.0145 H         1 <0>         0.4792
     83 H40        -4.4880    5.0493   -4.8895 H         1 <0>         0.4819
     84 H41        -4.9387    4.1296   -1.4095 H         1 <0>         0.4802
     85 H42        -5.7081    4.8156   -2.8114 H         1 <0>         0.4826
     86 H43         0.8216    0.7626    0.7549 H         1 <0>         0.3101
     87 H44        -4.0841   -3.7053    0.9020 H         1 <0>         0.3087
     88 H45        -1.7358    3.5742   -3.0793 H         1 <0>         0.4846
     89 H46        -9.9437   -0.3803   -2.1156 H         1 <0>         0.4194
     90 H47         1.8515   -6.8926    0.0654 H         1 <0>         0.4036
     91 H48         2.9483    0.8828   -0.2393 H         1 <0>         0.4114
     92 H49        -3.5708   -5.1935   -2.7576 H         1 <0>         0.3944
@<TRIPOS>BOND
     1    1    3 ar
     2    1    5 ar
     3    2    4 ar
     4    2    5 ar
     5    3    6 ar
     6    4    6 ar
     7    5   21 1
     8    6   40 1
     9    7   15 1
    10    7   34 am
    11    7   37 2
    12    8   27 1
    13    8   31 am
    14    8   38 2
    15    9   28 1
    16    9   35 am
    17    9   39 2
    18   10   32 1
    19   10   33 1
    20   10   36 1
    21   11   12 1
    22   11   16 1
    23   12   18 1
    24   13   15 1
    25   13   16 1
    26   14   17 1
    27   14   18 1
    28   15   31 1
    29   16   17 1
    30   17   31 1
    31   18   41 1
    32   19   29 1
    33   20   29 1
    34   21   28 1
    35   22   23 1
    36   22   25 1
    37   23   30 1
    38   24   27 1
    39   24   29 1
    40   25   36 1
    41   26   30 1
    42   26   42 1
    43   27   35 1
    44   28   43 1
    45   30   34 1
    46    1   44 1
    47    2   45 1
    48    3   46 1
    49    4   47 1
    50   11   48 1
    51   11   49 1
    52   12   50 1
    53   12   51 1
    54   13   52 1
    55   13   53 1
    56   14   54 1
    57   14   55 1
    58   15   56 1
    59   16   57 1
    60   17   58 1
    61   18   59 1
    62   19   60 1
    63   19   61 1
    64   19   62 1
    65   20   63 1
    66   20   64 1
    67   20   65 1
    68   21   66 1
    69   21   67 1
    70   22   68 1
    71   22   69 1
    72   23   70 1
    73   23   71 1
    74   24   72 1
    75   24   73 1
    76   25   74 1
    77   25   75 1
    78   26   76 1
    79   26   77 1
    80   27   78 1
    81   28   79 1
    82   29   80 1
    83   30   81 1
    84   32   82 1
    85   32   83 1
    86   33   84 1
    87   33   85 1
    88   34   86 1
    89   35   87 1
    90   36   88 1
    91   40   89 1
    92   41   90 1
    93   42   91 1
    94   43   92 1
@<TRIPOS>MOLECULE
1a2c_ligand_143
   92    94     0     0     0
SMALL
USER_CHARGES

mmff94s_NoEstat = 113.06
@<TRIPOS>ATOM
      1 C1         -7.6258   -3.5029   -2.2620 C.ar      1 <0>        -0.0708
      2 C2         -5.4814   -2.5721   -2.8719 C.ar      1 <0>        -0.0872
      3 C3         -8.2659   -2.4056   -2.8380 C.ar      1 <0>        -0.2241
      4 C4         -6.1215   -1.4747   -3.4479 C.ar      1 <0>        -0.1600
      5 C5         -6.2422   -3.5715   -2.2867 C.ar      1 <0>        -0.1356
      6 C6         -7.5138   -1.3914   -3.4309 C.ar      1 <0>         0.1290
      7 C7         -0.0512   -1.0561    0.2993 C.2       1 <0>         0.6664
      8 C8         -1.8469   -3.0457    2.1630 C.2       1 <0>         0.6651
      9 C9         -3.9484   -3.7154   -0.0348 C.2       1 <0>         0.6454
     10 C10        -3.7050    4.2413   -3.1125 C.cat     1 <0>         0.6349
     11 C11         2.5186   -3.1911    0.6823 C.3       1 <0>        -0.0642
     12 C12         2.4580   -4.6414    0.2376 C.3       1 <0>        -0.0747
     13 C13         1.4874   -1.4827    2.2418 C.3       1 <0>        -0.0873
     14 C14         0.4946   -5.0934    1.7133 C.3       1 <0>        -0.1371
     15 C15         0.0412   -1.4176    1.7503 C.3       1 <0>         0.0360
     16 C16         1.8865   -2.9529    2.0632 C.3       1 <0>        -0.0720
     17 C17         0.5665   -3.7001    2.3454 C.3       1 <0>         0.1201
     18 C18         1.0248   -5.1525    0.2868 C.3       1 <0>         0.1453
     19 C19        -5.5746   -0.7475    1.4860 C.3       1 <0>        -0.0968
     20 C20        -3.7112    0.7464    0.7408 C.3       1 <0>        -0.0986
     21 C21        -5.5493   -4.7598   -1.6638 C.3       1 <0>        -0.0191
     22 C22        -1.2019    2.6554   -0.7648 C.3       1 <0>        -0.1009
     23 C23        -0.8794    1.4488   -1.6540 C.3       1 <0>        -0.0942
     24 C24        -3.2372   -1.0062    2.4788 C.3       1 <0>        -0.0988
     25 C25        -2.5638    3.2498   -1.1169 C.3       1 <0>         0.1966
     26 C26         1.6856    1.6412   -1.5001 C.3       1 <0>         0.1128
     27 C27        -2.8325   -2.1090    1.5076 C.3       1 <0>         0.0786
     28 C28        -5.2285   -4.5282   -0.1835 C.3       1 <0>         0.0744
     29 C29        -4.2955   -0.0321    1.9228 C.3       1 <0>        -0.0678
     30 C30         0.4555    0.7445   -1.3388 C.3       1 <0>         0.1065
     31 N1         -0.4979   -2.7598    1.9615 N.am      1 <0>        -0.4315
     32 N2         -3.6699    4.6391   -4.4450 N.pl3     1 <0>        -0.8671
     33 N3         -4.8785    4.4093   -2.3855 N.pl3     1 <0>        -0.8581
     34 N4          0.4455    0.1980   -0.0008 N.am      1 <0>        -0.5687
     35 N5         -3.9193   -2.9688    1.1410 N.am      1 <0>        -0.5746
     36 N6         -2.5755    3.6752   -2.4964 N.pl3     1 <0>        -0.7533
     37 O1         -0.5362   -1.8555   -0.4928 O.2       1 <0>        -0.5843
     38 O2         -2.2659   -3.9924    2.8322 O.2       1 <0>        -0.6812
     39 O3         -3.0587   -3.7239   -0.8825 O.2       1 <0>        -0.5788
     40 O4         -8.1385   -0.3214   -3.9944 O.3       1 <0>        -0.4938
     41 O5          0.9879   -6.5072   -0.1510 O.3       1 <0>        -0.6030
     42 O6          2.8639    0.9021   -1.2063 O.3       1 <0>        -0.5860
     43 O7         -5.0331   -5.7850    0.4486 O.3       1 <0>        -0.6021
     44 H1         -8.2202   -4.2878   -1.8023 H         1 <0>         0.1412
     45 H2         -4.3961   -2.6287   -2.8900 H         1 <0>         0.1451
     46 H3         -9.3506   -2.3465   -2.8217 H         1 <0>         0.1336
     47 H4         -5.5300   -0.6883   -3.9091 H         1 <0>         0.1567
     48 H5          3.5627   -2.8549    0.7003 H         1 <0>         0.0649
     49 H6          2.0259   -2.5829   -0.0837 H         1 <0>         0.0476
     50 H7          2.8567   -4.7427   -0.7790 H         1 <0>         0.0641
     51 H8          3.1032   -5.2618    0.8729 H         1 <0>         0.0484
     52 H9          2.1569   -0.7868    1.7257 H         1 <0>         0.0596
     53 H10         1.5124   -1.2395    3.3116 H         1 <0>         0.0757
     54 H11         1.0921   -5.7802    2.3299 H         1 <0>         0.0782
     55 H12        -0.5175   -5.5090    1.7393 H         1 <0>         0.0812
     56 H13        -0.5378   -0.6778    2.3126 H         1 <0>         0.0731
     57 H14         2.6304   -3.2407    2.8169 H         1 <0>         0.0511
     58 H15         0.4523   -3.8218    3.4319 H         1 <0>         0.0753
     59 H16         0.3841   -4.5700   -0.3844 H         1 <0>         0.0427
     60 H17        -6.2768   -0.0422    1.0282 H         1 <0>         0.0450
     61 H18        -6.0867   -1.2049    2.3377 H         1 <0>         0.0406
     62 H19        -5.3599   -1.5330    0.7535 H         1 <0>         0.0274
     63 H20        -3.4369    0.0757   -0.0807 H         1 <0>         0.0476
     64 H21        -4.4352    1.4732    0.3573 H         1 <0>         0.0170
     65 H22        -2.8146    1.2981    1.0427 H         1 <0>         0.0477
     66 H23        -4.6263   -4.9709   -2.2204 H         1 <0>         0.0814
     67 H24        -6.1882   -5.6416   -1.7988 H         1 <0>         0.0685
     68 H25        -1.2036    2.3575    0.2901 H         1 <0>         0.1016
     69 H26        -0.4298    3.4262   -0.8760 H         1 <0>         0.0660
     70 H27        -0.8663    1.7736   -2.7033 H         1 <0>         0.0512
     71 H28        -1.6959    0.7195   -1.5759 H         1 <0>         0.0454
     72 H29        -2.3434   -0.4411    2.7760 H         1 <0>         0.0575
     73 H30        -3.6273   -1.4576    3.4018 H         1 <0>         0.0743
     74 H31        -2.7806    4.1099   -0.4745 H         1 <0>         0.0662
     75 H32        -3.3565    2.5102   -0.9645 H         1 <0>         0.0622
     76 H33         1.6463    2.5133   -0.8391 H         1 <0>         0.0321
     77 H34         1.7645    2.0016   -2.5321 H         1 <0>         0.0204
     78 H35        -2.3687   -1.7253    0.5998 H         1 <0>         0.0749
     79 H36        -6.0461   -4.0086    0.3300 H         1 <0>         0.0719
     80 H37        -4.5575    0.6951    2.7011 H         1 <0>         0.0609
     81 H38         0.5463   -0.0881   -2.0483 H         1 <0>         0.1063
     82 H39        -2.8341    4.5376   -5.0145 H         1 <0>         0.4792
     83 H40        -4.4880    5.0493   -4.8895 H         1 <0>         0.4819
     84 H41        -4.9387    4.1296   -1.4095 H         1 <0>         0.4802
     85 H42        -5.7081    4.8156   -2.8114 H         1 <0>         0.4826
     86 H43         0.8216    0.7626    0.7549 H         1 <0>         0.3101
     87 H44        -4.7157   -3.0377    1.7764 H         1 <0>         0.3087
     88 H45        -1.7358    3.5742   -3.0793 H         1 <0>         0.4846
     89 H46        -8.9568   -0.1184   -3.5138 H         1 <0>         0.4194
     90 H47         1.8515   -6.8926    0.0654 H         1 <0>         0.4036
     91 H48         2.9483    0.8828   -0.2393 H         1 <0>         0.4114
     92 H49        -5.4002   -6.4590   -0.1464 H         1 <0>         0.3944
@<TRIPOS>BOND
     1    1    3 ar
     2    1    5 ar
     3    2    4 ar
     4    2    5 ar
     5    3    6 ar
     6    4    6 ar
     7    5   21 1
     8    6   40 1
     9    7   15 1
    10    7   34 am
    11    7   37 2
    12    8   27 1
    13    8   31 am
    14    8   38 2
    15    9   28 1
    16    9   35 am
    17    9   39 2
    18   10   32 1
    19   10   33 1
    20   10   36 1
    21   11   12 1
    22   11   16 1
    23   12   18 1
    24   13   15 1
    25   13   16 1
    26   14   17 1
    27   14   18 1
    28   15   31 1
    29   16   17 1
    30   17   31 1
    31   18   41 1
    32   19   29 1
    33   20   29 1
    34   21   28 1
    35   22   23 1
    36   22   25 1
    37   23   30 1
    38   24   27 1
    39   24   29 1
    40   25   36 1
    41   26   30 1
    42   26   42 1
    43   27   35 1
    44   28   43 1
    45   30   34 1
    46    1   44 1
    47    2   45 1
    48    3   46 1
    49    4   47 1
    50   11   48 1
    51   11   49 1
    52   12   50 1
    53   12   51 1
    54   13   52 1
    55   13   53 1
    56   14   54 1
    57   14   55 1
    58   15   56 1
    59   16   57 1
    60   17   58 1
    61   18   59 1
    62   19   60 1
    63   19   61 1
    64   19   62 1
    65   20   63 1
    66   20   64 1
    67   20   65 1
    68   21   66 1
    69   21   67 1
    70   22   68 1
    71   22   69 1
    72   23   70 1
    73   23   71 1
    74   24   72 1
    75   24   73 1
    76   25   74 1
    77   25   75 1
    78   26   76 1
    79   26   77 1
    80   27   78 1
    81   28   79 1
    82   29   80 1
    83   30   81 1
    84   32   82 1
    85   32   83 1
    86   33   84 1
    87   33   85 1
    88   34   86 1
    89   35   87 1
    90   36   88 1
    91   40   89 1
    92   41   90 1
    93   42   91 1
    94   43   92 1
@<TRIPOS>MOLECULE
1a2c_ligand_144
   92    94     0     0     0
SMALL
USER_CHARGES

mmff94s_NoEstat = 113.08
@<TRIPOS>ATOM
      1 C1         -9.0847   -1.3044   -2.6485 C.ar      1 <0>        -0.0708
      2 C2         -8.5472   -3.2829   -1.3702 C.ar      1 <0>        -0.0872
      3 C3        -10.1778   -1.9642   -3.2101 C.ar      1 <0>        -0.2241
      4 C4         -9.6404   -3.9427   -1.9318 C.ar      1 <0>        -0.1600
      5 C5         -8.2841   -1.9726   -1.7361 C.ar      1 <0>        -0.1356
      6 C6        -10.4557   -3.2834   -2.8518 C.ar      1 <0>         0.1290
      7 C7         -0.1674   -1.0853   -0.0424 C.2       1 <0>         0.6664
      8 C8         -2.5997   -3.1326    0.7250 C.2       1 <0>         0.6651
      9 C9         -4.5933   -1.1215   -1.1219 C.2       1 <0>         0.6454
     10 C10        -1.7484    6.1931    1.4107 C.cat     1 <0>         0.6349
     11 C11         2.0445   -3.7524    0.2047 C.3       1 <0>        -0.0642
     12 C12         2.1951   -5.1517   -0.3975 C.3       1 <0>        -0.0747
     13 C13         0.7864   -2.3272    1.9103 C.3       1 <0>        -0.0873
     14 C14        -0.3466   -4.9962   -0.4055 C.3       1 <0>        -0.1371
     15 C15        -0.4770   -1.8334    1.2187 C.3       1 <0>         0.0360
     16 C16         1.0305   -3.7327    1.3503 C.3       1 <0>        -0.0720
     17 C17        -0.3661   -4.2312    0.9284 C.3       1 <0>         0.1201
     18 C18         0.8694   -5.9135   -0.5141 C.3       1 <0>         0.1453
     19 C19        -5.9631   -0.4404    1.7581 C.3       1 <0>        -0.0968
     20 C20        -3.8887    0.7550    2.4841 C.3       1 <0>        -0.0986
     21 C21        -7.1011   -1.2580   -1.1276 C.3       1 <0>        -0.0191
     22 C22        -0.3657    2.9388    0.0730 C.3       1 <0>        -0.1009
     23 C23         0.9718    2.4190   -0.4671 C.3       1 <0>        -0.0942
     24 C24        -3.8619   -1.7555    2.3678 C.3       1 <0>        -0.0988
     25 C25        -0.2710    4.4161    0.4476 C.3       1 <0>         0.1966
     26 C26         2.3035    0.4585   -1.4784 C.3       1 <0>         0.1128
     27 C27        -3.3800   -1.8574    0.9254 C.3       1 <0>         0.0786
     28 C28        -5.8260   -1.4472   -1.9560 C.3       1 <0>         0.0744
     29 C29        -4.7285   -0.5135    2.6578 C.3       1 <0>        -0.0678
     30 C30         0.9627    0.9465   -0.9241 C.3       1 <0>         0.1065
     31 N1         -1.2224   -3.0398    0.8850 N.am      1 <0>        -0.4315
     32 N2         -2.9884    6.5947    1.8966 N.pl3     1 <0>        -0.8671
     33 N3         -0.7056    7.1123    1.3716 N.pl3     1 <0>        -0.8581
     34 N4          0.5562    0.0753    0.1551 N.am      1 <0>        -0.5687
     35 N5         -4.4491   -1.9660   -0.0233 N.am      1 <0>        -0.5746
     36 N6         -1.5385    4.8777    0.9618 N.pl3     1 <0>        -0.7533
     37 O1         -0.5544   -1.5275   -1.1177 O.2       1 <0>        -0.5843
     38 O2         -3.1933   -4.1752    0.4418 O.2       1 <0>        -0.6812
     39 O3         -3.8320   -0.1982   -1.4017 O.2       1 <0>        -0.5788
     40 O4        -11.5233   -3.9266   -3.3985 O.3       1 <0>        -0.4938
     41 O5          0.7872   -6.8901    0.5248 O.3       1 <0>        -0.6030
     42 O6          3.3063    0.5601   -0.4760 O.3       1 <0>        -0.5860
     43 O7         -5.8598   -0.5599   -3.0646 O.3       1 <0>        -0.6021
     44 H1         -8.8761   -0.2769   -2.9339 H         1 <0>         0.1412
     45 H2         -7.9176   -3.8044   -0.6540 H         1 <0>         0.1451
     46 H3        -10.8091   -1.4452   -3.9259 H         1 <0>         0.1336
     47 H4         -9.8523   -4.9701   -1.6479 H         1 <0>         0.1567
     48 H5          3.0220   -3.4003    0.5555 H         1 <0>         0.0649
     49 H6          1.7363   -3.0584   -0.5866 H         1 <0>         0.0476
     50 H7          2.6388   -5.0399   -1.3944 H         1 <0>         0.0641
     51 H8          2.9088   -5.7297    0.2024 H         1 <0>         0.0484
     52 H9          1.6439   -1.6583    1.7836 H         1 <0>         0.0596
     53 H10         0.5887   -2.4119    2.9867 H         1 <0>         0.0757
     54 H11        -1.2632   -5.5927   -0.4872 H         1 <0>         0.0782
     55 H12        -0.3526   -4.2949   -1.2498 H         1 <0>         0.0812
     56 H13        -1.0651   -1.1731    1.8629 H         1 <0>         0.0731
     57 H14         1.4245   -4.3763    2.1480 H         1 <0>         0.0511
     58 H15        -0.7725   -4.8823    1.7135 H         1 <0>         0.0753
     59 H16         0.8433   -6.4624   -1.4612 H         1 <0>         0.0427
     60 H17        -6.5181    0.4873    1.9352 H         1 <0>         0.0450
     61 H18        -6.6497   -1.2692    1.9547 H         1 <0>         0.0406
     62 H19        -5.6850   -0.4702    0.6992 H         1 <0>         0.0274
     63 H20        -3.5277    0.8553    1.4548 H         1 <0>         0.0476
     64 H21        -4.4764    1.6472    2.7254 H         1 <0>         0.0170
     65 H22        -3.0188    0.7404    3.1493 H         1 <0>         0.0477
     66 H23        -6.9441   -1.6275   -0.1054 H         1 <0>         0.0814
     67 H24        -7.3548   -0.1954   -1.0258 H         1 <0>         0.0685
     68 H25        -1.1525    2.8103   -0.6795 H         1 <0>         0.1016
     69 H26        -0.6706    2.3600    0.9531 H         1 <0>         0.0660
     70 H27         1.7402    2.5418    0.3082 H         1 <0>         0.0512
     71 H28         1.2882    3.0521   -1.3060 H         1 <0>         0.0454
     72 H29        -2.9928   -1.7573    3.0396 H         1 <0>         0.0575
     73 H30        -4.4407   -2.6540    2.6237 H         1 <0>         0.0743
     74 H31        -0.0005    5.0139   -0.4292 H         1 <0>         0.0662
     75 H32         0.5008    4.5705    1.2088 H         1 <0>         0.0622
     76 H33         2.6215    1.0387   -2.3510 H         1 <0>         0.0321
     77 H34         2.2342   -0.5935   -1.7781 H         1 <0>         0.0204
     78 H35        -2.7366   -1.0282    0.6336 H         1 <0>         0.0749
     79 H36        -5.7413   -2.4715   -2.3380 H         1 <0>         0.0719
     80 H37        -5.0656   -0.5471    3.7011 H         1 <0>         0.0609
     81 H38         0.2159    0.8710   -1.7251 H         1 <0>         0.1063
     82 H39        -3.7797    5.9582    1.9421 H         1 <0>         0.4792
     83 H40        -3.1390    7.5472    2.2206 H         1 <0>         0.4819
     84 H41         0.2136    6.8523    1.0223 H         1 <0>         0.4802
     85 H42        -0.8346    8.0689    1.6923 H         1 <0>         0.4826
     86 H43         0.8147    0.3282    1.1041 H         1 <0>         0.3101
     87 H44        -5.1428   -2.7027    0.1135 H         1 <0>         0.3087
     88 H45        -2.3426    4.2405    1.0130 H         1 <0>         0.4846
     89 H46       -11.6766   -3.6139   -4.3044 H         1 <0>         0.4194
     90 H47         1.3049   -6.5470    1.2701 H         1 <0>         0.4036
     91 H48         3.5968    1.4864   -0.4636 H         1 <0>         0.4114
     92 H49        -6.7778   -0.2556   -3.1531 H         1 <0>         0.3944
@<TRIPOS>BOND
     1    1    3 ar
     2    1    5 ar
     3    2    4 ar
     4    2    5 ar
     5    3    6 ar
     6    4    6 ar
     7    5   21 1
     8    6   40 1
     9    7   15 1
    10    7   34 am
    11    7   37 2
    12    8   27 1
    13    8   31 am
    14    8   38 2
    15    9   28 1
    16    9   35 am
    17    9   39 2
    18   10   32 1
    19   10   33 1
    20   10   36 1
    21   11   12 1
    22   11   16 1
    23   12   18 1
    24   13   15 1
    25   13   16 1
    26   14   17 1
    27   14   18 1
    28   15   31 1
    29   16   17 1
    30   17   31 1
    31   18   41 1
    32   19   29 1
    33   20   29 1
    34   21   28 1
    35   22   23 1
    36   22   25 1
    37   23   30 1
    38   24   27 1
    39   24   29 1
    40   25   36 1
    41   26   30 1
    42   26   42 1
    43   27   35 1
    44   28   43 1
    45   30   34 1
    46    1   44 1
    47    2   45 1
    48    3   46 1
    49    4   47 1
    50   11   48 1
    51   11   49 1
    52   12   50 1
    53   12   51 1
    54   13   52 1
    55   13   53 1
    56   14   54 1
    57   14   55 1
    58   15   56 1
    59   16   57 1
    60   17   58 1
    61   18   59 1
    62   19   60 1
    63   19   61 1
    64   19   62 1
    65   20   63 1
    66   20   64 1
    67   20   65 1
    68   21   66 1
    69   21   67 1
    70   22   68 1
    71   22   69 1
    72   23   70 1
    73   23   71 1
    74   24   72 1
    75   24   73 1
    76   25   74 1
    77   25   75 1
    78   26   76 1
    79   26   77 1
    80   27   78 1
    81   28   79 1
    82   29   80 1
    83   30   81 1
    84   32   82 1
    85   32   83 1
    86   33   84 1
    87   33   85 1
    88   34   86 1
    89   35   87 1
    90   36   88 1
    91   40   89 1
    92   41   90 1
    93   42   91 1
    94   43   92 1
@<TRIPOS>MOLECULE
1a2c_ligand_145
   92    94     0     0     0
SMALL
USER_CHARGES

mmff94s_NoEstat = 113.11
@<TRIPOS>ATOM
      1 C1         -7.1365   -2.8677   -2.9678 C.ar      1 <0>        -0.0708
      2 C2         -5.7068   -0.9564   -2.5937 C.ar      1 <0>        -0.0872
      3 C3         -8.2603   -2.0492   -2.8547 C.ar      1 <0>        -0.2241
      4 C4         -6.8306   -0.1379   -2.4807 C.ar      1 <0>        -0.1600
      5 C5         -5.8748   -2.3103   -2.8358 C.ar      1 <0>        -0.1356
      6 C6         -8.1073   -0.6843   -2.6112 C.ar      1 <0>         0.1290
      7 C7         -0.0512   -1.0561    0.2993 C.2       1 <0>         0.6664
      8 C8         -1.8469   -3.0457    2.1630 C.2       1 <0>         0.6651
      9 C9         -3.4040   -2.7670   -0.8258 C.2       1 <0>         0.6454
     10 C10        -2.7746    6.0237    0.0845 C.cat     1 <0>         0.6349
     11 C11         2.5186   -3.1911    0.6823 C.3       1 <0>        -0.0642
     12 C12         2.4580   -4.6414    0.2376 C.3       1 <0>        -0.0747
     13 C13         1.4874   -1.4827    2.2418 C.3       1 <0>        -0.0873
     14 C14         0.4946   -5.0934    1.7133 C.3       1 <0>        -0.1371
     15 C15         0.0412   -1.4176    1.7503 C.3       1 <0>         0.0360
     16 C16         1.8865   -2.9529    2.0632 C.3       1 <0>        -0.0720
     17 C17         0.5665   -3.7001    2.3454 C.3       1 <0>         0.1201
     18 C18         1.0248   -5.1525    0.2868 C.3       1 <0>         0.1453
     19 C19        -5.7275   -1.2982    0.9287 C.3       1 <0>        -0.0968
     20 C20        -4.2097    0.6462    1.3473 C.3       1 <0>        -0.0986
     21 C21        -4.6582   -3.1963   -2.9589 C.3       1 <0>        -0.0191
     22 C22        -1.0374    2.7415   -0.6235 C.3       1 <0>        -0.1009
     23 C23         0.2513    2.2726   -1.3090 C.3       1 <0>        -0.0942
     24 C24        -3.7699   -1.5150    2.5525 C.3       1 <0>        -0.0988
     25 C25        -1.1758    4.2607   -0.6924 C.3       1 <0>         0.1966
     26 C26         1.7383    0.3016   -2.0469 C.3       1 <0>         0.1128
     27 C27        -2.8325   -2.1090    1.5076 C.3       1 <0>         0.0786
     28 C28        -4.2317   -3.7794   -1.6077 C.3       1 <0>         0.0744
     29 C29        -4.8597   -0.5919    1.9712 C.3       1 <0>        -0.0678
     30 C30         0.4555    0.7445   -1.3388 C.3       1 <0>         0.1065
     31 N1         -0.4979   -2.7598    1.9615 N.am      1 <0>        -0.4315
     32 N2         -3.9558    6.3783    0.7278 N.pl3     1 <0>        -0.8671
     33 N3         -1.9667    7.0223   -0.4484 N.pl3     1 <0>        -0.8581
     34 N4          0.4455    0.1980   -0.0008 N.am      1 <0>        -0.5687
     35 N5         -3.5026   -2.9419    0.5527 N.am      1 <0>        -0.5746
     36 N6         -2.3904    4.6766   -0.0323 N.pl3     1 <0>        -0.7533
     37 O1         -0.5362   -1.8555   -0.4928 O.2       1 <0>        -0.5843
     38 O2         -2.2659   -3.9924    2.8322 O.2       1 <0>        -0.6812
     39 O3         -2.7407   -1.8909   -1.3761 O.2       1 <0>        -0.5788
     40 O4         -9.2039    0.1147   -2.5025 O.3       1 <0>        -0.4938
     41 O5          0.9879   -6.5072   -0.1510 O.3       1 <0>        -0.6030
     42 O6          2.8703    0.8436   -1.3793 O.3       1 <0>        -0.5860
     43 O7         -3.4297   -4.9297   -1.8337 O.3       1 <0>        -0.6021
     44 H1         -7.2656   -3.9298   -3.1574 H         1 <0>         0.1412
     45 H2         -4.7158   -0.5219   -2.4909 H         1 <0>         0.1451
     46 H3         -9.2520   -2.4807   -2.9575 H         1 <0>         0.1336
     47 H4         -6.7049    0.9250   -2.2918 H         1 <0>         0.1567
     48 H5          3.5627   -2.8549    0.7003 H         1 <0>         0.0649
     49 H6          2.0259   -2.5829   -0.0837 H         1 <0>         0.0476
     50 H7          2.8567   -4.7427   -0.7790 H         1 <0>         0.0641
     51 H8          3.1032   -5.2618    0.8729 H         1 <0>         0.0484
     52 H9          2.1569   -0.7868    1.7257 H         1 <0>         0.0596
     53 H10         1.5124   -1.2395    3.3116 H         1 <0>         0.0757
     54 H11         1.0921   -5.7802    2.3299 H         1 <0>         0.0782
     55 H12        -0.5175   -5.5090    1.7393 H         1 <0>         0.0812
     56 H13        -0.5378   -0.6778    2.3126 H         1 <0>         0.0731
     57 H14         2.6304   -3.2407    2.8169 H         1 <0>         0.0511
     58 H15         0.4523   -3.8218    3.4319 H         1 <0>         0.0753
     59 H16         0.3841   -4.5700   -0.3844 H         1 <0>         0.0427
     60 H17        -6.4424   -0.5993    0.4810 H         1 <0>         0.0450
     61 H18        -6.3080   -2.1101    1.3767 H         1 <0>         0.0406
     62 H19        -5.1167   -1.7184    0.1225 H         1 <0>         0.0274
     63 H20        -3.5507    0.3732    0.5159 H         1 <0>         0.0476
     64 H21        -4.9709    1.3343    0.9644 H         1 <0>         0.0170
     65 H22        -3.6139    1.1889    2.0888 H         1 <0>         0.0477
     66 H23        -3.8338   -2.6171   -3.3960 H         1 <0>         0.0814
     67 H24        -4.8817   -3.9909   -3.6819 H         1 <0>         0.0685
     68 H25        -1.9092    2.2808   -1.1025 H         1 <0>         0.1016
     69 H26        -1.0467    2.4234    0.4259 H         1 <0>         0.0660
     70 H27         1.1110    2.7323   -0.8028 H         1 <0>         0.0512
     71 H28         0.2685    2.6560   -2.3373 H         1 <0>         0.0454
     72 H29        -3.1790   -0.9587    3.2928 H         1 <0>         0.0575
     73 H30        -4.2588   -2.3274    3.1083 H         1 <0>         0.0743
     74 H31        -1.2027    4.5928   -1.7356 H         1 <0>         0.0662
     75 H32        -0.3220    4.7463   -0.2087 H         1 <0>         0.0622
     76 H33         1.7614    0.6251   -3.0928 H         1 <0>         0.0321
     77 H34         1.8289   -0.7905   -2.0281 H         1 <0>         0.0204
     78 H35        -2.2612   -1.3523    0.9714 H         1 <0>         0.0749
     79 H36        -5.0980   -4.0774   -1.0053 H         1 <0>         0.0719
     80 H37        -5.5109   -0.2494    2.7849 H         1 <0>         0.0609
     81 H38        -0.3978    0.3245   -1.8868 H         1 <0>         0.1063
     82 H39        -4.5782    5.6828    1.1306 H         1 <0>         0.4792
     83 H40        -4.2329    7.3536    0.8111 H         1 <0>         0.4819
     84 H41        -1.0966    6.7983   -0.9251 H         1 <0>         0.4802
     85 H42        -2.2244    8.0035   -0.3744 H         1 <0>         0.4826
     86 H43         0.8216    0.7626    0.7549 H         1 <0>         0.3101
     87 H44        -4.0841   -3.7053    0.9020 H         1 <0>         0.3087
     88 H45        -3.0238    3.9804    0.3791 H         1 <0>         0.4846
     89 H46        -9.9437   -0.3803   -2.1156 H         1 <0>         0.4194
     90 H47         1.8515   -6.8926    0.0654 H         1 <0>         0.4036
     91 H48         2.9636    1.7601   -1.6856 H         1 <0>         0.4114
     92 H49        -3.5708   -5.1935   -2.7576 H         1 <0>         0.3944
@<TRIPOS>BOND
     1    1    3 ar
     2    1    5 ar
     3    2    4 ar
     4    2    5 ar
     5    3    6 ar
     6    4    6 ar
     7    5   21 1
     8    6   40 1
     9    7   15 1
    10    7   34 am
    11    7   37 2
    12    8   27 1
    13    8   31 am
    14    8   38 2
    15    9   28 1
    16    9   35 am
    17    9   39 2
    18   10   32 1
    19   10   33 1
    20   10   36 1
    21   11   12 1
    22   11   16 1
    23   12   18 1
    24   13   15 1
    25   13   16 1
    26   14   17 1
    27   14   18 1
    28   15   31 1
    29   16   17 1
    30   17   31 1
    31   18   41 1
    32   19   29 1
    33   20   29 1
    34   21   28 1
    35   22   23 1
    36   22   25 1
    37   23   30 1
    38   24   27 1
    39   24   29 1
    40   25   36 1
    41   26   30 1
    42   26   42 1
    43   27   35 1
    44   28   43 1
    45   30   34 1
    46    1   44 1
    47    2   45 1
    48    3   46 1
    49    4   47 1
    50   11   48 1
    51   11   49 1
    52   12   50 1
    53   12   51 1
    54   13   52 1
    55   13   53 1
    56   14   54 1
    57   14   55 1
    58   15   56 1
    59   16   57 1
    60   17   58 1
    61   18   59 1
    62   19   60 1
    63   19   61 1
    64   19   62 1
    65   20   63 1
    66   20   64 1
    67   20   65 1
    68   21   66 1
    69   21   67 1
    70   22   68 1
    71   22   69 1
    72   23   70 1
    73   23   71 1
    74   24   72 1
    75   24   73 1
    76   25   74 1
    77   25   75 1
    78   26   76 1
    79   26   77 1
    80   27   78 1
    81   28   79 1
    82   29   80 1
    83   30   81 1
    84   32   82 1
    85   32   83 1
    86   33   84 1
    87   33   85 1
    88   34   86 1
    89   35   87 1
    90   36   88 1
    91   40   89 1
    92   41   90 1
    93   42   91 1
    94   43   92 1
@<TRIPOS>MOLECULE
1a2c_ligand_146
   92    94     0     0     0
SMALL
USER_CHARGES

mmff94s_NoEstat = 113.26
@<TRIPOS>ATOM
      1 C1         -9.0710   -3.1012    0.0189 C.ar      1 <0>        -0.0708
      2 C2         -7.9646   -4.4965    1.6517 C.ar      1 <0>        -0.0872
      3 C3        -10.1182   -4.0195   -0.0562 C.ar      1 <0>        -0.2241
      4 C4         -9.0118   -5.4148    1.5766 C.ar      1 <0>        -0.1600
      5 C5         -8.0083   -3.3520    0.8718 C.ar      1 <0>        -0.1356
      6 C6        -10.0887   -5.1764    0.7226 C.ar      1 <0>         0.1290
      7 C7         -0.0512   -1.0561    0.2993 C.2       1 <0>         0.6664
      8 C8         -1.8469   -3.0457    2.1630 C.2       1 <0>         0.6651
      9 C9         -4.4743   -1.9575    0.3333 C.2       1 <0>         0.6454
     10 C10        -3.6249    3.0583   -3.5179 C.cat     1 <0>         0.6349
     11 C11         2.5186   -3.1911    0.6823 C.3       1 <0>        -0.0642
     12 C12         2.4580   -4.6414    0.2376 C.3       1 <0>        -0.0747
     13 C13         1.4874   -1.4827    2.2418 C.3       1 <0>        -0.0873
     14 C14         0.4946   -5.0934    1.7133 C.3       1 <0>        -0.1371
     15 C15         0.0412   -1.4176    1.7503 C.3       1 <0>         0.0360
     16 C16         1.8865   -2.9529    2.0632 C.3       1 <0>        -0.0720
     17 C17         0.5665   -3.7001    2.3454 C.3       1 <0>         0.1201
     18 C18         1.0248   -5.1525    0.2868 C.3       1 <0>         0.1453
     19 C19        -5.3726   -0.5418    3.1302 C.3       1 <0>        -0.0968
     20 C20        -3.4397    1.0389    2.9738 C.3       1 <0>        -0.0986
     21 C21        -6.8749   -2.3574    0.9537 C.3       1 <0>        -0.0191
     22 C22        -1.8968    1.7896   -1.0188 C.3       1 <0>        -0.1009
     23 C23        -0.4337    2.0012   -1.4250 C.3       1 <0>        -0.0942
     24 C24        -2.9973   -1.3585    3.5851 C.3       1 <0>        -0.0988
     25 C25        -2.7062    3.0733   -1.1890 C.3       1 <0>         0.1966
     26 C26         1.9058    0.9774   -1.7696 C.3       1 <0>         0.1128
     27 C27        -2.7865   -1.8644    2.1628 C.3       1 <0>         0.0786
     28 C28        -5.7663   -2.6636   -0.0588 C.3       1 <0>         0.0744
     29 C29        -3.9969   -0.1898    3.6979 C.3       1 <0>        -0.0678
     30 C30         0.4555    0.7445   -1.3388 C.3       1 <0>         0.1065
     31 N1         -0.4979   -2.7598    1.9615 N.am      1 <0>        -0.4315
     32 N2         -3.5643    3.4908   -4.8386 N.pl3     1 <0>        -0.8671
     33 N3         -4.6359    2.1826   -3.1370 N.pl3     1 <0>        -0.8581
     34 N4          0.4455    0.1980   -0.0008 N.am      1 <0>        -0.5687
     35 N5         -3.9799   -2.3853    1.5634 N.am      1 <0>        -0.5746
     36 N6         -2.6823    3.4930   -2.5701 N.pl3     1 <0>        -0.7533
     37 O1         -0.5362   -1.8555   -0.4928 O.2       1 <0>        -0.5843
     38 O2         -2.2998   -4.1783    2.3409 O.2       1 <0>        -0.6812
     39 O3         -3.9527   -1.0962   -0.3713 O.2       1 <0>        -0.5788
     40 O4        -11.1113   -6.0717    0.6505 O.3       1 <0>        -0.4938
     41 O5          0.9879   -6.5072   -0.1510 O.3       1 <0>        -0.6030
     42 O6          2.5087    1.9525   -0.9290 O.3       1 <0>        -0.5860
     43 O7         -6.1634   -2.1870   -1.3365 O.3       1 <0>        -0.6021
     44 H1         -9.1028   -2.2030   -0.5918 H         1 <0>         0.1412
     45 H2         -7.1297   -4.6904    2.3201 H         1 <0>         0.1451
     46 H3        -10.9542   -3.8281   -0.7231 H         1 <0>         0.1336
     47 H4         -8.9835   -6.3139    2.1866 H         1 <0>         0.1567
     48 H5          3.5627   -2.8549    0.7003 H         1 <0>         0.0649
     49 H6          2.0259   -2.5829   -0.0837 H         1 <0>         0.0476
     50 H7          2.8567   -4.7427   -0.7790 H         1 <0>         0.0641
     51 H8          3.1032   -5.2618    0.8729 H         1 <0>         0.0484
     52 H9          2.1569   -0.7868    1.7257 H         1 <0>         0.0596
     53 H10         1.5124   -1.2395    3.3116 H         1 <0>         0.0757
     54 H11         1.0921   -5.7802    2.3299 H         1 <0>         0.0782
     55 H12        -0.5175   -5.5090    1.7393 H         1 <0>         0.0812
     56 H13        -0.5378   -0.6778    2.3126 H         1 <0>         0.0731
     57 H14         2.6304   -3.2407    2.8169 H         1 <0>         0.0511
     58 H15         0.4523   -3.8218    3.4319 H         1 <0>         0.0753
     59 H16         0.3841   -4.5700   -0.3844 H         1 <0>         0.0427
     60 H17        -6.0375    0.3284    3.1563 H         1 <0>         0.0450
     61 H18        -5.8542   -1.3328    3.7128 H         1 <0>         0.0406
     62 H19        -5.2988   -0.8789    2.0908 H         1 <0>         0.0274
     63 H20        -3.3028    0.8425    1.9049 H         1 <0>         0.0476
     64 H21        -4.1178    1.8926    3.0773 H         1 <0>         0.0170
     65 H22        -2.4708    1.3315    3.3922 H         1 <0>         0.0477
     66 H23        -6.4655   -2.3612    1.9727 H         1 <0>         0.0814
     67 H24        -7.2864   -1.3519    0.8004 H         1 <0>         0.0685
     68 H25        -2.3478    0.9988   -1.6296 H         1 <0>         0.1016
     69 H26        -1.9571    1.4582    0.0248 H         1 <0>         0.0660
     70 H27         0.0021    2.7844   -0.7898 H         1 <0>         0.0512
     71 H28        -0.4008    2.3932   -2.4497 H         1 <0>         0.0454
     72 H29        -2.0302   -1.0518    4.0061 H         1 <0>         0.0575
     73 H30        -3.3514   -2.1846    4.2177 H         1 <0>         0.0743
     74 H31        -2.2897    3.8707   -0.5646 H         1 <0>         0.0662
     75 H32        -3.7451    2.9157   -0.8815 H         1 <0>         0.0622
     76 H33         1.9749    1.3199   -2.8074 H         1 <0>         0.0321
     77 H34         2.4858    0.0519   -1.6791 H         1 <0>         0.0204
     78 H35        -2.3647   -1.1082    1.5019 H         1 <0>         0.0749
     79 H36        -5.5777   -3.7409   -0.1372 H         1 <0>         0.0719
     80 H37        -4.1195    0.0762    4.7551 H         1 <0>         0.0609
     81 H38         0.0149    0.0012   -2.0158 H         1 <0>         0.1063
     82 H39        -2.8447    4.1318   -5.1618 H         1 <0>         0.4792
     83 H40        -4.2476    3.1757   -5.5234 H         1 <0>         0.4819
     84 H41        -4.7096    1.8467   -2.1798 H         1 <0>         0.4802
     85 H42        -5.3278    1.8541   -3.8063 H         1 <0>         0.4826
     86 H43         0.8216    0.7626    0.7549 H         1 <0>         0.3101
     87 H44        -4.4957   -3.1095    2.0656 H         1 <0>         0.3087
     88 H45        -1.9574    4.1390   -2.9053 H         1 <0>         0.4846
     89 H46       -11.4852   -6.0838   -0.2450 H         1 <0>         0.4194
     90 H47         1.8515   -6.8926    0.0654 H         1 <0>         0.4036
     91 H48         2.2238    2.8203   -1.2580 H         1 <0>         0.4114
     92 H49        -7.1203   -2.0275   -1.2920 H         1 <0>         0.3944
@<TRIPOS>BOND
     1    1    3 ar
     2    1    5 ar
     3    2    4 ar
     4    2    5 ar
     5    3    6 ar
     6    4    6 ar
     7    5   21 1
     8    6   40 1
     9    7   15 1
    10    7   34 am
    11    7   37 2
    12    8   27 1
    13    8   31 am
    14    8   38 2
    15    9   28 1
    16    9   35 am
    17    9   39 2
    18   10   32 1
    19   10   33 1
    20   10   36 1
    21   11   12 1
    22   11   16 1
    23   12   18 1
    24   13   15 1
    25   13   16 1
    26   14   17 1
    27   14   18 1
    28   15   31 1
    29   16   17 1
    30   17   31 1
    31   18   41 1
    32   19   29 1
    33   20   29 1
    34   21   28 1
    35   22   23 1
    36   22   25 1
    37   23   30 1
    38   24   27 1
    39   24   29 1
    40   25   36 1
    41   26   30 1
    42   26   42 1
    43   27   35 1
    44   28   43 1
    45   30   34 1
    46    1   44 1
    47    2   45 1
    48    3   46 1
    49    4   47 1
    50   11   48 1
    51   11   49 1
    52   12   50 1
    53   12   51 1
    54   13   52 1
    55   13   53 1
    56   14   54 1
    57   14   55 1
    58   15   56 1
    59   16   57 1
    60   17   58 1
    61   18   59 1
    62   19   60 1
    63   19   61 1
    64   19   62 1
    65   20   63 1
    66   20   64 1
    67   20   65 1
    68   21   66 1
    69   21   67 1
    70   22   68 1
    71   22   69 1
    72   23   70 1
    73   23   71 1
    74   24   72 1
    75   24   73 1
    76   25   74 1
    77   25   75 1
    78   26   76 1
    79   26   77 1
    80   27   78 1
    81   28   79 1
    82   29   80 1
    83   30   81 1
    84   32   82 1
    85   32   83 1
    86   33   84 1
    87   33   85 1
    88   34   86 1
    89   35   87 1
    90   36   88 1
    91   40   89 1
    92   41   90 1
    93   42   91 1
    94   43   92 1
@<TRIPOS>MOLECULE
1a2c_ligand_147
   92    94     0     0     0
SMALL
USER_CHARGES

mmff94s_NoEstat = 113.30
@<TRIPOS>ATOM
      1 C1         -7.0405   -7.0460   -1.4067 C.ar      1 <0>        -0.0708
      2 C2         -7.3077   -5.0476   -2.7379 C.ar      1 <0>        -0.0872
      3 C3         -8.3090   -7.4753   -1.7967 C.ar      1 <0>        -0.2241
      4 C4         -8.5762   -5.4770   -3.1280 C.ar      1 <0>        -0.1600
      5 C5         -6.5568   -5.8379   -1.8825 C.ar      1 <0>        -0.1356
      6 C6         -9.0769   -6.6909   -2.6574 C.ar      1 <0>         0.1290
      7 C7         -0.0512   -1.0561    0.2993 C.2       1 <0>         0.6664
      8 C8         -1.8469   -3.0457    2.1630 C.2       1 <0>         0.6651
      9 C9         -3.9484   -3.7154   -0.0348 C.2       1 <0>         0.6454
     10 C10        -3.7050    4.2413   -3.1125 C.cat     1 <0>         0.6349
     11 C11         2.5186   -3.1911    0.6823 C.3       1 <0>        -0.0642
     12 C12         2.4580   -4.6414    0.2376 C.3       1 <0>        -0.0747
     13 C13         1.4874   -1.4827    2.2418 C.3       1 <0>        -0.0873
     14 C14         0.4946   -5.0934    1.7133 C.3       1 <0>        -0.1371
     15 C15         0.0412   -1.4176    1.7503 C.3       1 <0>         0.0360
     16 C16         1.8865   -2.9529    2.0632 C.3       1 <0>        -0.0720
     17 C17         0.5665   -3.7001    2.3454 C.3       1 <0>         0.1201
     18 C18         1.0248   -5.1525    0.2868 C.3       1 <0>         0.1453
     19 C19        -5.5746   -0.7475    1.4860 C.3       1 <0>        -0.0968
     20 C20        -3.7112    0.7464    0.7408 C.3       1 <0>        -0.0986
     21 C21        -5.1833   -5.3734   -1.4608 C.3       1 <0>        -0.0191
     22 C22        -1.2019    2.6554   -0.7648 C.3       1 <0>        -0.1009
     23 C23        -0.8794    1.4488   -1.6540 C.3       1 <0>        -0.0942
     24 C24        -3.2372   -1.0062    2.4788 C.3       1 <0>        -0.0988
     25 C25        -2.5638    3.2498   -1.1169 C.3       1 <0>         0.1966
     26 C26         1.6856    1.6412   -1.5001 C.3       1 <0>         0.1128
     27 C27        -2.8325   -2.1090    1.5076 C.3       1 <0>         0.0786
     28 C28        -5.2285   -4.5282   -0.1835 C.3       1 <0>         0.0744
     29 C29        -4.2955   -0.0321    1.9228 C.3       1 <0>        -0.0678
     30 C30         0.4555    0.7445   -1.3388 C.3       1 <0>         0.1065
     31 N1         -0.4979   -2.7598    1.9615 N.am      1 <0>        -0.4315
     32 N2         -3.6699    4.6391   -4.4450 N.pl3     1 <0>        -0.8671
     33 N3         -4.8785    4.4093   -2.3855 N.pl3     1 <0>        -0.8581
     34 N4          0.4455    0.1980   -0.0008 N.am      1 <0>        -0.5687
     35 N5         -3.9193   -2.9688    1.1410 N.am      1 <0>        -0.5746
     36 N6         -2.5755    3.6752   -2.4964 N.pl3     1 <0>        -0.7533
     37 O1         -0.5362   -1.8555   -0.4928 O.2       1 <0>        -0.5843
     38 O2         -2.2659   -3.9924    2.8322 O.2       1 <0>        -0.6812
     39 O3         -3.0587   -3.7239   -0.8825 O.2       1 <0>        -0.5788
     40 O4        -10.3141   -7.1107   -3.0393 O.3       1 <0>        -0.4938
     41 O5          0.9879   -6.5072   -0.1510 O.3       1 <0>        -0.6030
     42 O6          2.8639    0.9021   -1.2063 O.3       1 <0>        -0.5860
     43 O7         -5.3393   -5.3924    0.9382 O.3       1 <0>        -0.6021
     44 H1         -6.4498   -7.6638   -0.7358 H         1 <0>         0.1412
     45 H2         -6.9255   -4.1005   -3.1098 H         1 <0>         0.1451
     46 H3         -8.6934   -8.4218   -1.4269 H         1 <0>         0.1336
     47 H4         -9.1693   -4.8618   -3.7995 H         1 <0>         0.1567
     48 H5          3.5627   -2.8549    0.7003 H         1 <0>         0.0649
     49 H6          2.0259   -2.5829   -0.0837 H         1 <0>         0.0476
     50 H7          2.8567   -4.7427   -0.7790 H         1 <0>         0.0641
     51 H8          3.1032   -5.2618    0.8729 H         1 <0>         0.0484
     52 H9          2.1569   -0.7868    1.7257 H         1 <0>         0.0596
     53 H10         1.5124   -1.2395    3.3116 H         1 <0>         0.0757
     54 H11         1.0921   -5.7802    2.3299 H         1 <0>         0.0782
     55 H12        -0.5175   -5.5090    1.7393 H         1 <0>         0.0812
     56 H13        -0.5378   -0.6778    2.3126 H         1 <0>         0.0731
     57 H14         2.6304   -3.2407    2.8169 H         1 <0>         0.0511
     58 H15         0.4523   -3.8218    3.4319 H         1 <0>         0.0753
     59 H16         0.3841   -4.5700   -0.3844 H         1 <0>         0.0427
     60 H17        -6.2768   -0.0422    1.0282 H         1 <0>         0.0450
     61 H18        -6.0867   -1.2049    2.3377 H         1 <0>         0.0406
     62 H19        -5.3599   -1.5330    0.7535 H         1 <0>         0.0274
     63 H20        -3.4369    0.0757   -0.0807 H         1 <0>         0.0476
     64 H21        -4.4352    1.4732    0.3573 H         1 <0>         0.0170
     65 H22        -2.8146    1.2981    1.0427 H         1 <0>         0.0477
     66 H23        -4.7317   -4.7959   -2.2785 H         1 <0>         0.0814
     67 H24        -4.5452   -6.2565   -1.3306 H         1 <0>         0.0685
     68 H25        -1.2036    2.3575    0.2901 H         1 <0>         0.1016
     69 H26        -0.4298    3.4262   -0.8760 H         1 <0>         0.0660
     70 H27        -0.8663    1.7736   -2.7033 H         1 <0>         0.0512
     71 H28        -1.6959    0.7195   -1.5759 H         1 <0>         0.0454
     72 H29        -2.3434   -0.4411    2.7760 H         1 <0>         0.0575
     73 H30        -3.6273   -1.4576    3.4018 H         1 <0>         0.0743
     74 H31        -2.7806    4.1099   -0.4745 H         1 <0>         0.0662
     75 H32        -3.3565    2.5102   -0.9645 H         1 <0>         0.0622
     76 H33         1.6463    2.5133   -0.8391 H         1 <0>         0.0321
     77 H34         1.7645    2.0016   -2.5321 H         1 <0>         0.0204
     78 H35        -2.3687   -1.7253    0.5998 H         1 <0>         0.0749
     79 H36        -6.0886   -3.8483   -0.1798 H         1 <0>         0.0719
     80 H37        -4.5575    0.6951    2.7011 H         1 <0>         0.0609
     81 H38         0.5463   -0.0881   -2.0483 H         1 <0>         0.1063
     82 H39        -2.8341    4.5376   -5.0145 H         1 <0>         0.4792
     83 H40        -4.4880    5.0493   -4.8895 H         1 <0>         0.4819
     84 H41        -4.9387    4.1296   -1.4095 H         1 <0>         0.4802
     85 H42        -5.7081    4.8156   -2.8114 H         1 <0>         0.4826
     86 H43         0.8216    0.7626    0.7549 H         1 <0>         0.3101
     87 H44        -4.7157   -3.0377    1.7764 H         1 <0>         0.3087
     88 H45        -1.7358    3.5742   -3.0793 H         1 <0>         0.4846
     89 H46       -10.7303   -7.6222   -2.3273 H         1 <0>         0.4194
     90 H47         1.8515   -6.8926    0.0654 H         1 <0>         0.4036
     91 H48         2.9483    0.8828   -0.2393 H         1 <0>         0.4114
     92 H49        -5.6131   -6.2600    0.5986 H         1 <0>         0.3944
@<TRIPOS>BOND
     1    1    3 ar
     2    1    5 ar
     3    2    4 ar
     4    2    5 ar
     5    3    6 ar
     6    4    6 ar
     7    5   21 1
     8    6   40 1
     9    7   15 1
    10    7   34 am
    11    7   37 2
    12    8   27 1
    13    8   31 am
    14    8   38 2
    15    9   28 1
    16    9   35 am
    17    9   39 2
    18   10   32 1
    19   10   33 1
    20   10   36 1
    21   11   12 1
    22   11   16 1
    23   12   18 1
    24   13   15 1
    25   13   16 1
    26   14   17 1
    27   14   18 1
    28   15   31 1
    29   16   17 1
    30   17   31 1
    31   18   41 1
    32   19   29 1
    33   20   29 1
    34   21   28 1
    35   22   23 1
    36   22   25 1
    37   23   30 1
    38   24   27 1
    39   24   29 1
    40   25   36 1
    41   26   30 1
    42   26   42 1
    43   27   35 1
    44   28   43 1
    45   30   34 1
    46    1   44 1
    47    2   45 1
    48    3   46 1
    49    4   47 1
    50   11   48 1
    51   11   49 1
    52   12   50 1
    53   12   51 1
    54   13   52 1
    55   13   53 1
    56   14   54 1
    57   14   55 1
    58   15   56 1
    59   16   57 1
    60   17   58 1
    61   18   59 1
    62   19   60 1
    63   19   61 1
    64   19   62 1
    65   20   63 1
    66   20   64 1
    67   20   65 1
    68   21   66 1
    69   21   67 1
    70   22   68 1
    71   22   69 1
    72   23   70 1
    73   23   71 1
    74   24   72 1
    75   24   73 1
    76   25   74 1
    77   25   75 1
    78   26   76 1
    79   26   77 1
    80   27   78 1
    81   28   79 1
    82   29   80 1
    83   30   81 1
    84   32   82 1
    85   32   83 1
    86   33   84 1
    87   33   85 1
    88   34   86 1
    89   35   87 1
    90   36   88 1
    91   40   89 1
    92   41   90 1
    93   42   91 1
    94   43   92 1
@<TRIPOS>MOLECULE
1a2c_ligand_148
   92    94     0     0     0
SMALL
USER_CHARGES

mmff94s_NoEstat = 113.39
@<TRIPOS>ATOM
      1 C1         -5.5598   -5.0305   -4.3987 C.ar      1 <0>        -0.0708
      2 C2         -7.1116   -3.5596   -3.2737 C.ar      1 <0>        -0.0872
      3 C3         -6.6289   -5.7304   -4.9581 C.ar      1 <0>        -0.2241
      4 C4         -8.1806   -4.2595   -3.8331 C.ar      1 <0>        -0.1600
      5 C5         -5.8156   -3.9545   -3.5640 C.ar      1 <0>        -0.1356
      6 C6         -7.9393   -5.3449   -4.6753 C.ar      1 <0>         0.1290
      7 C7         -0.0512   -1.0561    0.2993 C.2       1 <0>         0.6664
      8 C8         -1.8469   -3.0457    2.1630 C.2       1 <0>         0.6651
      9 C9         -3.4040   -2.7670   -0.8258 C.2       1 <0>         0.6454
     10 C10        -4.0116    5.1557   -0.3824 C.cat     1 <0>         0.6349
     11 C11         2.5186   -3.1911    0.6823 C.3       1 <0>        -0.0642
     12 C12         2.4580   -4.6414    0.2376 C.3       1 <0>        -0.0747
     13 C13         1.4874   -1.4827    2.2418 C.3       1 <0>        -0.0873
     14 C14         0.4946   -5.0934    1.7133 C.3       1 <0>        -0.1371
     15 C15         0.0412   -1.4176    1.7503 C.3       1 <0>         0.0360
     16 C16         1.8865   -2.9529    2.0632 C.3       1 <0>        -0.0720
     17 C17         0.5665   -3.7001    2.3454 C.3       1 <0>         0.1201
     18 C18         1.0248   -5.1525    0.2868 C.3       1 <0>         0.1453
     19 C19        -5.7275   -1.2982    0.9287 C.3       1 <0>        -0.0968
     20 C20        -4.2097    0.6462    1.3473 C.3       1 <0>        -0.0986
     21 C21        -4.6582   -3.1963   -2.9589 C.3       1 <0>        -0.0191
     22 C22        -1.2019    2.6554   -0.7648 C.3       1 <0>        -0.1009
     23 C23        -0.8794    1.4488   -1.6540 C.3       1 <0>        -0.0942
     24 C24        -3.7699   -1.5150    2.5525 C.3       1 <0>        -0.0988
     25 C25        -2.5638    3.2498   -1.1169 C.3       1 <0>         0.1966
     26 C26         1.6856    1.6412   -1.5001 C.3       1 <0>         0.1128
     27 C27        -2.8325   -2.1090    1.5076 C.3       1 <0>         0.0786
     28 C28        -4.2317   -3.7794   -1.6077 C.3       1 <0>         0.0744
     29 C29        -4.8597   -0.5919    1.9712 C.3       1 <0>        -0.0678
     30 C30         0.4555    0.7445   -1.3388 C.3       1 <0>         0.1065
     31 N1         -0.4979   -2.7598    1.9615 N.am      1 <0>        -0.4315
     32 N2         -4.2357    6.2444    0.4539 N.pl3     1 <0>        -0.8671
     33 N3         -4.9668    4.8273   -1.3383 N.pl3     1 <0>        -0.8581
     34 N4          0.4455    0.1980   -0.0008 N.am      1 <0>        -0.5687
     35 N5         -3.5026   -2.9419    0.5527 N.am      1 <0>        -0.5746
     36 N6         -2.8388    4.3887   -0.2734 N.pl3     1 <0>        -0.7533
     37 O1         -0.5362   -1.8555   -0.4928 O.2       1 <0>        -0.5843
     38 O2         -2.2659   -3.9924    2.8322 O.2       1 <0>        -0.6812
     39 O3         -2.7407   -1.8909   -1.3761 O.2       1 <0>        -0.5788
     40 O4         -8.9824   -6.0269   -5.2225 O.3       1 <0>        -0.4938
     41 O5          0.9879   -6.5072   -0.1510 O.3       1 <0>        -0.6030
     42 O6          1.7603    2.1231   -2.8354 O.3       1 <0>        -0.5860
     43 O7         -3.4297   -4.9297   -1.8337 O.3       1 <0>        -0.6021
     44 H1         -4.5425   -5.3383   -4.6246 H         1 <0>         0.1412
     45 H2         -7.3091   -2.7149   -2.6188 H         1 <0>         0.1451
     46 H3         -6.4344   -6.5748   -5.6134 H         1 <0>         0.1336
     47 H4         -9.1994   -3.9538   -3.6097 H         1 <0>         0.1567
     48 H5          3.5627   -2.8549    0.7003 H         1 <0>         0.0649
     49 H6          2.0259   -2.5829   -0.0837 H         1 <0>         0.0476
     50 H7          2.8567   -4.7427   -0.7790 H         1 <0>         0.0641
     51 H8          3.1032   -5.2618    0.8729 H         1 <0>         0.0484
     52 H9          2.1569   -0.7868    1.7257 H         1 <0>         0.0596
     53 H10         1.5124   -1.2395    3.3116 H         1 <0>         0.0757
     54 H11         1.0921   -5.7802    2.3299 H         1 <0>         0.0782
     55 H12        -0.5175   -5.5090    1.7393 H         1 <0>         0.0812
     56 H13        -0.5378   -0.6778    2.3126 H         1 <0>         0.0731
     57 H14         2.6304   -3.2407    2.8169 H         1 <0>         0.0511
     58 H15         0.4523   -3.8218    3.4319 H         1 <0>         0.0753
     59 H16         0.3841   -4.5700   -0.3844 H         1 <0>         0.0427
     60 H17        -6.4424   -0.5993    0.4810 H         1 <0>         0.0450
     61 H18        -6.3080   -2.1101    1.3767 H         1 <0>         0.0406
     62 H19        -5.1167   -1.7184    0.1225 H         1 <0>         0.0274
     63 H20        -3.5507    0.3732    0.5159 H         1 <0>         0.0476
     64 H21        -4.9709    1.3343    0.9644 H         1 <0>         0.0170
     65 H22        -3.6139    1.1889    2.0888 H         1 <0>         0.0477
     66 H23        -4.9408   -2.1416   -2.8414 H         1 <0>         0.0814
     67 H24        -3.8274   -3.2052   -3.6757 H         1 <0>         0.0685
     68 H25        -1.2036    2.3575    0.2901 H         1 <0>         0.1016
     69 H26        -0.4298    3.4262   -0.8760 H         1 <0>         0.0660
     70 H27        -0.8663    1.7736   -2.7033 H         1 <0>         0.0512
     71 H28        -1.6959    0.7195   -1.5759 H         1 <0>         0.0454
     72 H29        -3.1790   -0.9587    3.2928 H         1 <0>         0.0575
     73 H30        -4.2588   -2.3274    3.1083 H         1 <0>         0.0743
     74 H31        -3.3520    2.5022   -0.9783 H         1 <0>         0.0662
     75 H32        -2.5848    3.5678   -2.1644 H         1 <0>         0.0622
     76 H33         2.6140    1.1086   -1.2684 H         1 <0>         0.0321
     77 H34         1.6176    2.5087   -0.8338 H         1 <0>         0.0204
     78 H35        -2.2612   -1.3523    0.9714 H         1 <0>         0.0749
     79 H36        -5.0980   -4.0774   -1.0053 H         1 <0>         0.0719
     80 H37        -5.5109   -0.2494    2.7849 H         1 <0>         0.0609
     81 H38         0.5463   -0.0881   -2.0483 H         1 <0>         0.1063
     82 H39        -3.5669    6.5202    1.1680 H         1 <0>         0.4792
     83 H40        -5.0854    6.7983    0.3742 H         1 <0>         0.4819
     84 H41        -4.8350    4.0377   -1.9658 H         1 <0>         0.4802
     85 H42        -5.8222    5.3690   -1.4357 H         1 <0>         0.4826
     86 H43         0.8216    0.7626    0.7549 H         1 <0>         0.3101
     87 H44        -4.0841   -3.7053    0.9020 H         1 <0>         0.3087
     88 H45        -2.1673    4.6753    0.4493 H         1 <0>         0.4846
     89 H46        -8.7515   -6.9631   -5.3324 H         1 <0>         0.4194
     90 H47         1.8515   -6.8926    0.0654 H         1 <0>         0.4036
     91 H48         2.1522    1.4122   -3.3679 H         1 <0>         0.4114
     92 H49        -3.5708   -5.1935   -2.7576 H         1 <0>         0.3944
@<TRIPOS>BOND
     1    1    3 ar
     2    1    5 ar
     3    2    4 ar
     4    2    5 ar
     5    3    6 ar
     6    4    6 ar
     7    5   21 1
     8    6   40 1
     9    7   15 1
    10    7   34 am
    11    7   37 2
    12    8   27 1
    13    8   31 am
    14    8   38 2
    15    9   28 1
    16    9   35 am
    17    9   39 2
    18   10   32 1
    19   10   33 1
    20   10   36 1
    21   11   12 1
    22   11   16 1
    23   12   18 1
    24   13   15 1
    25   13   16 1
    26   14   17 1
    27   14   18 1
    28   15   31 1
    29   16   17 1
    30   17   31 1
    31   18   41 1
    32   19   29 1
    33   20   29 1
    34   21   28 1
    35   22   23 1
    36   22   25 1
    37   23   30 1
    38   24   27 1
    39   24   29 1
    40   25   36 1
    41   26   30 1
    42   26   42 1
    43   27   35 1
    44   28   43 1
    45   30   34 1
    46    1   44 1
    47    2   45 1
    48    3   46 1
    49    4   47 1
    50   11   48 1
    51   11   49 1
    52   12   50 1
    53   12   51 1
    54   13   52 1
    55   13   53 1
    56   14   54 1
    57   14   55 1
    58   15   56 1
    59   16   57 1
    60   17   58 1
    61   18   59 1
    62   19   60 1
    63   19   61 1
    64   19   62 1
    65   20   63 1
    66   20   64 1
    67   20   65 1
    68   21   66 1
    69   21   67 1
    70   22   68 1
    71   22   69 1
    72   23   70 1
    73   23   71 1
    74   24   72 1
    75   24   73 1
    76   25   74 1
    77   25   75 1
    78   26   76 1
    79   26   77 1
    80   27   78 1
    81   28   79 1
    82   29   80 1
    83   30   81 1
    84   32   82 1
    85   32   83 1
    86   33   84 1
    87   33   85 1
    88   34   86 1
    89   35   87 1
    90   36   88 1
    91   40   89 1
    92   41   90 1
    93   42   91 1
    94   43   92 1
@<TRIPOS>MOLECULE
1a2c_ligand_149
   92    94     0     0     0
SMALL
USER_CHARGES

mmff94s_NoEstat = 113.41
@<TRIPOS>ATOM
      1 C1         -8.4460   -3.1309   -1.9874 C.ar      1 <0>        -0.0708
      2 C2         -8.9583   -1.7012   -0.1084 C.ar      1 <0>        -0.0872
      3 C3         -9.7777   -3.5428   -2.0370 C.ar      1 <0>        -0.2241
      4 C4        -10.2900   -2.1132   -0.1580 C.ar      1 <0>        -0.1600
      5 C5         -8.0541   -2.2156   -1.0238 C.ar      1 <0>        -0.1356
      6 C6        -10.6997   -3.0340   -1.1223 C.ar      1 <0>         0.1290
      7 C7         -0.0512   -1.0561    0.2993 C.2       1 <0>         0.6664
      8 C8         -1.8469   -3.0457    2.1630 C.2       1 <0>         0.6651
      9 C9         -4.4743   -1.9575    0.3333 C.2       1 <0>         0.6454
     10 C10        -4.6048    3.4001   -1.1814 C.cat     1 <0>         0.6349
     11 C11         2.5186   -3.1911    0.6823 C.3       1 <0>        -0.0642
     12 C12         2.4580   -4.6414    0.2376 C.3       1 <0>        -0.0747
     13 C13         1.4874   -1.4827    2.2418 C.3       1 <0>        -0.0873
     14 C14         0.4946   -5.0934    1.7133 C.3       1 <0>        -0.1371
     15 C15         0.0412   -1.4176    1.7503 C.3       1 <0>         0.0360
     16 C16         1.8865   -2.9529    2.0632 C.3       1 <0>        -0.0720
     17 C17         0.5665   -3.7001    2.3454 C.3       1 <0>         0.1201
     18 C18         1.0248   -5.1525    0.2868 C.3       1 <0>         0.1453
     19 C19        -5.3726   -0.5418    3.1302 C.3       1 <0>        -0.0968
     20 C20        -3.4397    1.0389    2.9738 C.3       1 <0>        -0.0986
     21 C21        -6.6126   -1.7691   -0.9705 C.3       1 <0>        -0.0191
     22 C22        -2.1258    0.5661   -1.5204 C.3       1 <0>        -0.1009
     23 C23        -0.8794    1.4488   -1.6540 C.3       1 <0>        -0.0942
     24 C24        -2.9973   -1.3585    3.5851 C.3       1 <0>        -0.0988
     25 C25        -3.3881    1.3349   -1.9043 C.3       1 <0>         0.1966
     26 C26         1.6856    1.6412   -1.5001 C.3       1 <0>         0.1128
     27 C27        -2.7865   -1.8644    2.1628 C.3       1 <0>         0.0786
     28 C28        -5.7663   -2.6636   -0.0588 C.3       1 <0>         0.0744
     29 C29        -3.9969   -0.1898    3.6979 C.3       1 <0>        -0.0678
     30 C30         0.4555    0.7445   -1.3388 C.3       1 <0>         0.1065
     31 N1         -0.4979   -2.7598    1.9615 N.am      1 <0>        -0.4315
     32 N2         -4.7160    4.4968   -0.3331 N.pl3     1 <0>        -0.8671
     33 N3         -5.5614    3.2101   -2.1727 N.pl3     1 <0>        -0.8581
     34 N4          0.4455    0.1980   -0.0008 N.am      1 <0>        -0.5687
     35 N5         -3.9799   -2.3853    1.5634 N.am      1 <0>        -0.5746
     36 N6         -3.5437    2.4877   -1.0494 N.pl3     1 <0>        -0.7533
     37 O1         -0.5362   -1.8555   -0.4928 O.2       1 <0>        -0.5843
     38 O2         -2.2998   -4.1783    2.3409 O.2       1 <0>        -0.6812
     39 O3         -3.9527   -1.0962   -0.3713 O.2       1 <0>        -0.5788
     40 O4        -11.9996   -3.4348   -1.1718 O.3       1 <0>        -0.4938
     41 O5          0.9879   -6.5072   -0.1510 O.3       1 <0>        -0.6030
     42 O6          1.5971    2.7470   -0.6113 O.3       1 <0>        -0.5860
     43 O7         -5.4285   -3.8509   -0.7614 O.3       1 <0>        -0.6021
     44 H1         -7.7350   -3.5329   -2.7040 H         1 <0>         0.1412
     45 H2         -8.6481   -0.9831    0.6463 H         1 <0>         0.1451
     46 H3        -10.0907   -4.2602   -2.7905 H         1 <0>         0.1336
     47 H4        -11.0039   -1.7124    0.5568 H         1 <0>         0.1567
     48 H5          3.5627   -2.8549    0.7003 H         1 <0>         0.0649
     49 H6          2.0259   -2.5829   -0.0837 H         1 <0>         0.0476
     50 H7          2.8567   -4.7427   -0.7790 H         1 <0>         0.0641
     51 H8          3.1032   -5.2618    0.8729 H         1 <0>         0.0484
     52 H9          2.1569   -0.7868    1.7257 H         1 <0>         0.0596
     53 H10         1.5124   -1.2395    3.3116 H         1 <0>         0.0757
     54 H11         1.0921   -5.7802    2.3299 H         1 <0>         0.0782
     55 H12        -0.5175   -5.5090    1.7393 H         1 <0>         0.0812
     56 H13        -0.5378   -0.6778    2.3126 H         1 <0>         0.0731
     57 H14         2.6304   -3.2407    2.8169 H         1 <0>         0.0511
     58 H15         0.4523   -3.8218    3.4319 H         1 <0>         0.0753
     59 H16         0.3841   -4.5700   -0.3844 H         1 <0>         0.0427
     60 H17        -6.0375    0.3284    3.1563 H         1 <0>         0.0450
     61 H18        -5.8542   -1.3328    3.7128 H         1 <0>         0.0406
     62 H19        -5.2988   -0.8789    2.0908 H         1 <0>         0.0274
     63 H20        -3.3028    0.8425    1.9049 H         1 <0>         0.0476
     64 H21        -4.1178    1.8926    3.0773 H         1 <0>         0.0170
     65 H22        -2.4708    1.3315    3.3922 H         1 <0>         0.0477
     66 H23        -6.5706   -0.7287   -0.6213 H         1 <0>         0.0814
     67 H24        -6.2170   -1.7572   -1.9939 H         1 <0>         0.0685
     68 H25        -2.0346   -0.3163   -2.1645 H         1 <0>         0.1016
     69 H26        -2.2229    0.1995   -0.4914 H         1 <0>         0.0660
     70 H27        -0.9849    2.3163   -0.9885 H         1 <0>         0.0512
     71 H28        -0.8376    1.8555   -2.6726 H         1 <0>         0.0454
     72 H29        -2.0302   -1.0518    4.0061 H         1 <0>         0.0575
     73 H30        -3.3514   -2.1846    4.2177 H         1 <0>         0.0743
     74 H31        -4.2695    0.6926   -1.8042 H         1 <0>         0.0662
     75 H32        -3.3332    1.6675   -2.9460 H         1 <0>         0.0622
     76 H33         1.7842    2.0214   -2.5223 H         1 <0>         0.0321
     77 H34         2.5988    1.0866   -1.2555 H         1 <0>         0.0204
     78 H35        -2.3647   -1.1082    1.5019 H         1 <0>         0.0749
     79 H36        -6.3120   -2.9453    0.8496 H         1 <0>         0.0719
     80 H37        -4.1195    0.0762    4.7551 H         1 <0>         0.0609
     81 H38         0.5463   -0.0881   -2.0483 H         1 <0>         0.1063
     82 H39        -4.0418    4.6748    0.4066 H         1 <0>         0.4792
     83 H40        -5.4849    5.1560   -0.4294 H         1 <0>         0.4819
     84 H41        -5.5105    2.4190   -2.8099 H         1 <0>         0.4802
     85 H42        -6.3370    3.8583   -2.2872 H         1 <0>         0.4826
     86 H43         0.8216    0.7626    0.7549 H         1 <0>         0.3101
     87 H44        -4.4957   -3.1095    2.0656 H         1 <0>         0.3087
     88 H45        -2.8658    2.6759   -0.3010 H         1 <0>         0.4846
     89 H46       -12.0566   -4.3542   -1.4771 H         1 <0>         0.4194
     90 H47         1.8515   -6.8926    0.0654 H         1 <0>         0.4036
     91 H48         1.0115    3.3975   -1.0313 H         1 <0>         0.4114
     92 H49        -6.0237   -3.9035   -1.5269 H         1 <0>         0.3944
@<TRIPOS>BOND
     1    1    3 ar
     2    1    5 ar
     3    2    4 ar
     4    2    5 ar
     5    3    6 ar
     6    4    6 ar
     7    5   21 1
     8    6   40 1
     9    7   15 1
    10    7   34 am
    11    7   37 2
    12    8   27 1
    13    8   31 am
    14    8   38 2
    15    9   28 1
    16    9   35 am
    17    9   39 2
    18   10   32 1
    19   10   33 1
    20   10   36 1
    21   11   12 1
    22   11   16 1
    23   12   18 1
    24   13   15 1
    25   13   16 1
    26   14   17 1
    27   14   18 1
    28   15   31 1
    29   16   17 1
    30   17   31 1
    31   18   41 1
    32   19   29 1
    33   20   29 1
    34   21   28 1
    35   22   23 1
    36   22   25 1
    37   23   30 1
    38   24   27 1
    39   24   29 1
    40   25   36 1
    41   26   30 1
    42   26   42 1
    43   27   35 1
    44   28   43 1
    45   30   34 1
    46    1   44 1
    47    2   45 1
    48    3   46 1
    49    4   47 1
    50   11   48 1
    51   11   49 1
    52   12   50 1
    53   12   51 1
    54   13   52 1
    55   13   53 1
    56   14   54 1
    57   14   55 1
    58   15   56 1
    59   16   57 1
    60   17   58 1
    61   18   59 1
    62   19   60 1
    63   19   61 1
    64   19   62 1
    65   20   63 1
    66   20   64 1
    67   20   65 1
    68   21   66 1
    69   21   67 1
    70   22   68 1
    71   22   69 1
    72   23   70 1
    73   23   71 1
    74   24   72 1
    75   24   73 1
    76   25   74 1
    77   25   75 1
    78   26   76 1
    79   26   77 1
    80   27   78 1
    81   28   79 1
    82   29   80 1
    83   30   81 1
    84   32   82 1
    85   32   83 1
    86   33   84 1
    87   33   85 1
    88   34   86 1
    89   35   87 1
    90   36   88 1
    91   40   89 1
    92   41   90 1
    93   42   91 1
    94   43   92 1
@<TRIPOS>MOLECULE
1a2c_ligand_150
   92    94     0     0     0
SMALL
USER_CHARGES

mmff94s_NoEstat = 113.42
@<TRIPOS>ATOM
      1 C1         -4.9929   -5.5460   -4.3314 C.ar      1 <0>        -0.0708
      2 C2         -6.2813   -3.5051   -4.2233 C.ar      1 <0>        -0.0872
      3 C3         -6.0094   -6.1484   -5.0726 C.ar      1 <0>        -0.2241
      4 C4         -7.2979   -4.1076   -4.9645 C.ar      1 <0>        -0.1600
      5 C5         -5.1424   -4.2324   -3.9167 C.ar      1 <0>        -0.1356
      6 C6         -7.1619   -5.4292   -5.3891 C.ar      1 <0>         0.1290
      7 C7         -0.0512   -1.0561    0.2993 C.2       1 <0>         0.6664
      8 C8         -1.8469   -3.0457    2.1630 C.2       1 <0>         0.6651
      9 C9         -3.4040   -2.7670   -0.8258 C.2       1 <0>         0.6454
     10 C10        -3.7050    4.2413   -3.1125 C.cat     1 <0>         0.6349
     11 C11         2.5186   -3.1911    0.6823 C.3       1 <0>        -0.0642
     12 C12         2.4580   -4.6414    0.2376 C.3       1 <0>        -0.0747
     13 C13         1.4874   -1.4827    2.2418 C.3       1 <0>        -0.0873
     14 C14         0.4946   -5.0934    1.7133 C.3       1 <0>        -0.1371
     15 C15         0.0412   -1.4176    1.7503 C.3       1 <0>         0.0360
     16 C16         1.8865   -2.9529    2.0632 C.3       1 <0>        -0.0720
     17 C17         0.5665   -3.7001    2.3454 C.3       1 <0>         0.1201
     18 C18         1.0248   -5.1525    0.2868 C.3       1 <0>         0.1453
     19 C19        -5.7275   -1.2982    0.9287 C.3       1 <0>        -0.0968
     20 C20        -4.2097    0.6462    1.3473 C.3       1 <0>        -0.0986
     21 C21        -4.0416   -3.5799   -3.1149 C.3       1 <0>        -0.0191
     22 C22        -1.2019    2.6554   -0.7648 C.3       1 <0>        -0.1009
     23 C23        -0.8794    1.4488   -1.6540 C.3       1 <0>        -0.0942
     24 C24        -3.7699   -1.5150    2.5525 C.3       1 <0>        -0.0988
     25 C25        -2.5638    3.2498   -1.1169 C.3       1 <0>         0.1966
     26 C26         1.6856    1.6412   -1.5001 C.3       1 <0>         0.1128
     27 C27        -2.8325   -2.1090    1.5076 C.3       1 <0>         0.0786
     28 C28        -4.2317   -3.7794   -1.6077 C.3       1 <0>         0.0744
     29 C29        -4.8597   -0.5919    1.9712 C.3       1 <0>        -0.0678
     30 C30         0.4555    0.7445   -1.3388 C.3       1 <0>         0.1065
     31 N1         -0.4979   -2.7598    1.9615 N.am      1 <0>        -0.4315
     32 N2         -3.6699    4.6391   -4.4450 N.pl3     1 <0>        -0.8671
     33 N3         -4.8785    4.4093   -2.3855 N.pl3     1 <0>        -0.8581
     34 N4          0.4455    0.1980   -0.0008 N.am      1 <0>        -0.5687
     35 N5         -3.5026   -2.9419    0.5527 N.am      1 <0>        -0.5746
     36 N6         -2.5755    3.6752   -2.4964 N.pl3     1 <0>        -0.7533
     37 O1         -0.5362   -1.8555   -0.4928 O.2       1 <0>        -0.5843
     38 O2         -2.2659   -3.9924    2.8322 O.2       1 <0>        -0.6812
     39 O3         -2.7407   -1.8909   -1.3761 O.2       1 <0>        -0.5788
     40 O4         -8.1531   -6.0167   -6.1138 O.3       1 <0>        -0.4938
     41 O5          0.9879   -6.5072   -0.1510 O.3       1 <0>        -0.6030
     42 O6          2.8639    0.9021   -1.2063 O.3       1 <0>        -0.5860
     43 O7         -3.7895   -5.0823   -1.2550 O.3       1 <0>        -0.6021
     44 H1         -4.0988   -6.1142   -4.0895 H         1 <0>         0.1412
     45 H2         -6.3958   -2.4747   -3.8969 H         1 <0>         0.1451
     46 H3         -5.8975   -7.1781   -5.4005 H         1 <0>         0.1336
     47 H4         -8.1930   -3.5417   -5.2088 H         1 <0>         0.1567
     48 H5          3.5627   -2.8549    0.7003 H         1 <0>         0.0649
     49 H6          2.0259   -2.5829   -0.0837 H         1 <0>         0.0476
     50 H7          2.8567   -4.7427   -0.7790 H         1 <0>         0.0641
     51 H8          3.1032   -5.2618    0.8729 H         1 <0>         0.0484
     52 H9          2.1569   -0.7868    1.7257 H         1 <0>         0.0596
     53 H10         1.5124   -1.2395    3.3116 H         1 <0>         0.0757
     54 H11         1.0921   -5.7802    2.3299 H         1 <0>         0.0782
     55 H12        -0.5175   -5.5090    1.7393 H         1 <0>         0.0812
     56 H13        -0.5378   -0.6778    2.3126 H         1 <0>         0.0731
     57 H14         2.6304   -3.2407    2.8169 H         1 <0>         0.0511
     58 H15         0.4523   -3.8218    3.4319 H         1 <0>         0.0753
     59 H16         0.3841   -4.5700   -0.3844 H         1 <0>         0.0427
     60 H17        -6.4424   -0.5993    0.4810 H         1 <0>         0.0450
     61 H18        -6.3080   -2.1101    1.3767 H         1 <0>         0.0406
     62 H19        -5.1167   -1.7184    0.1225 H         1 <0>         0.0274
     63 H20        -3.5507    0.3732    0.5159 H         1 <0>         0.0476
     64 H21        -4.9709    1.3343    0.9644 H         1 <0>         0.0170
     65 H22        -3.6139    1.1889    2.0888 H         1 <0>         0.0477
     66 H23        -4.0106   -2.5080   -3.3518 H         1 <0>         0.0814
     67 H24        -3.0807   -3.9886   -3.4518 H         1 <0>         0.0685
     68 H25        -1.2036    2.3575    0.2901 H         1 <0>         0.1016
     69 H26        -0.4298    3.4262   -0.8760 H         1 <0>         0.0660
     70 H27        -0.8663    1.7736   -2.7033 H         1 <0>         0.0512
     71 H28        -1.6959    0.7195   -1.5759 H         1 <0>         0.0454
     72 H29        -3.1790   -0.9587    3.2928 H         1 <0>         0.0575
     73 H30        -4.2588   -2.3274    3.1083 H         1 <0>         0.0743
     74 H31        -2.7806    4.1099   -0.4745 H         1 <0>         0.0662
     75 H32        -3.3565    2.5102   -0.9645 H         1 <0>         0.0622
     76 H33         1.6463    2.5133   -0.8391 H         1 <0>         0.0321
     77 H34         1.7645    2.0016   -2.5321 H         1 <0>         0.0204
     78 H35        -2.2612   -1.3523    0.9714 H         1 <0>         0.0749
     79 H36        -5.2848   -3.6836   -1.3176 H         1 <0>         0.0719
     80 H37        -5.5109   -0.2494    2.7849 H         1 <0>         0.0609
     81 H38         0.5463   -0.0881   -2.0483 H         1 <0>         0.1063
     82 H39        -2.8341    4.5376   -5.0145 H         1 <0>         0.4792
     83 H40        -4.4880    5.0493   -4.8895 H         1 <0>         0.4819
     84 H41        -4.9387    4.1296   -1.4095 H         1 <0>         0.4802
     85 H42        -5.7081    4.8156   -2.8114 H         1 <0>         0.4826
     86 H43         0.8216    0.7626    0.7549 H         1 <0>         0.3101
     87 H44        -4.0841   -3.7053    0.9020 H         1 <0>         0.3087
     88 H45        -1.7358    3.5742   -3.0793 H         1 <0>         0.4846
     89 H46        -8.1971   -6.9658   -5.9160 H         1 <0>         0.4194
     90 H47         1.8515   -6.8926    0.0654 H         1 <0>         0.4036
     91 H48         2.9483    0.8828   -0.2393 H         1 <0>         0.4114
     92 H49        -3.7253   -5.5902   -2.0803 H         1 <0>         0.3944
@<TRIPOS>BOND
     1    1    3 ar
     2    1    5 ar
     3    2    4 ar
     4    2    5 ar
     5    3    6 ar
     6    4    6 ar
     7    5   21 1
     8    6   40 1
     9    7   15 1
    10    7   34 am
    11    7   37 2
    12    8   27 1
    13    8   31 am
    14    8   38 2
    15    9   28 1
    16    9   35 am
    17    9   39 2
    18   10   32 1
    19   10   33 1
    20   10   36 1
    21   11   12 1
    22   11   16 1
    23   12   18 1
    24   13   15 1
    25   13   16 1
    26   14   17 1
    27   14   18 1
    28   15   31 1
    29   16   17 1
    30   17   31 1
    31   18   41 1
    32   19   29 1
    33   20   29 1
    34   21   28 1
    35   22   23 1
    36   22   25 1
    37   23   30 1
    38   24   27 1
    39   24   29 1
    40   25   36 1
    41   26   30 1
    42   26   42 1
    43   27   35 1
    44   28   43 1
    45   30   34 1
    46    1   44 1
    47    2   45 1
    48    3   46 1
    49    4   47 1
    50   11   48 1
    51   11   49 1
    52   12   50 1
    53   12   51 1
    54   13   52 1
    55   13   53 1
    56   14   54 1
    57   14   55 1
    58   15   56 1
    59   16   57 1
    60   17   58 1
    61   18   59 1
    62   19   60 1
    63   19   61 1
    64   19   62 1
    65   20   63 1
    66   20   64 1
    67   20   65 1
    68   21   66 1
    69   21   67 1
    70   22   68 1
    71   22   69 1
    72   23   70 1
    73   23   71 1
    74   24   72 1
    75   24   73 1
    76   25   74 1
    77   25   75 1
    78   26   76 1
    79   26   77 1
    80   27   78 1
    81   28   79 1
    82   29   80 1
    83   30   81 1
    84   32   82 1
    85   32   83 1
    86   33   84 1
    87   33   85 1
    88   34   86 1
    89   35   87 1
    90   36   88 1
    91   40   89 1
    92   41   90 1
    93   42   91 1
    94   43   92 1
@<TRIPOS>MOLECULE
1a2c_ligand_151
   92    94     0     0     0
SMALL
USER_CHARGES

mmff94s_NoEstat = 113.46
@<TRIPOS>ATOM
      1 C1         -6.2055   -4.7113   -4.1285 C.ar      1 <0>        -0.0708
      2 C2         -7.5012   -4.0778   -2.1902 C.ar      1 <0>        -0.0872
      3 C3         -7.2346   -5.5584   -4.5396 C.ar      1 <0>        -0.2241
      4 C4         -8.5303   -4.9249   -2.6013 C.ar      1 <0>        -0.1600
      5 C5         -6.3526   -3.9823   -2.9594 C.ar      1 <0>        -0.1356
      6 C6         -8.3970   -5.6653   -3.7760 C.ar      1 <0>         0.1290
      7 C7         -0.0512   -1.0561    0.2993 C.2       1 <0>         0.6664
      8 C8         -1.8469   -3.0457    2.1630 C.2       1 <0>         0.6651
      9 C9         -3.4040   -2.7670   -0.8258 C.2       1 <0>         0.6454
     10 C10        -2.7746    6.0237    0.0845 C.cat     1 <0>         0.6349
     11 C11         2.5186   -3.1911    0.6823 C.3       1 <0>        -0.0642
     12 C12         2.4580   -4.6414    0.2376 C.3       1 <0>        -0.0747
     13 C13         1.4874   -1.4827    2.2418 C.3       1 <0>        -0.0873
     14 C14         0.4946   -5.0934    1.7133 C.3       1 <0>        -0.1371
     15 C15         0.0412   -1.4176    1.7503 C.3       1 <0>         0.0360
     16 C16         1.8865   -2.9529    2.0632 C.3       1 <0>        -0.0720
     17 C17         0.5665   -3.7001    2.3454 C.3       1 <0>         0.1201
     18 C18         1.0248   -5.1525    0.2868 C.3       1 <0>         0.1453
     19 C19        -5.7275   -1.2982    0.9287 C.3       1 <0>        -0.0968
     20 C20        -4.2097    0.6462    1.3473 C.3       1 <0>        -0.0986
     21 C21        -5.2387   -3.0647   -2.5148 C.3       1 <0>        -0.0191
     22 C22        -1.0374    2.7415   -0.6235 C.3       1 <0>        -0.1009
     23 C23         0.2513    2.2726   -1.3090 C.3       1 <0>        -0.0942
     24 C24        -3.7699   -1.5150    2.5525 C.3       1 <0>        -0.0988
     25 C25        -1.1758    4.2607   -0.6924 C.3       1 <0>         0.1966
     26 C26         1.7383    0.3016   -2.0469 C.3       1 <0>         0.1128
     27 C27        -2.8325   -2.1090    1.5076 C.3       1 <0>         0.0786
     28 C28        -4.2317   -3.7794   -1.6077 C.3       1 <0>         0.0744
     29 C29        -4.8597   -0.5919    1.9712 C.3       1 <0>        -0.0678
     30 C30         0.4555    0.7445   -1.3388 C.3       1 <0>         0.1065
     31 N1         -0.4979   -2.7598    1.9615 N.am      1 <0>        -0.4315
     32 N2         -3.9558    6.3783    0.7278 N.pl3     1 <0>        -0.8671
     33 N3         -1.9667    7.0223   -0.4484 N.pl3     1 <0>        -0.8581
     34 N4          0.4455    0.1980   -0.0008 N.am      1 <0>        -0.5687
     35 N5         -3.5026   -2.9419    0.5527 N.am      1 <0>        -0.5746
     36 N6         -2.3904    4.6766   -0.0323 N.pl3     1 <0>        -0.7533
     37 O1         -0.5362   -1.8555   -0.4928 O.2       1 <0>        -0.5843
     38 O2         -2.2659   -3.9924    2.8322 O.2       1 <0>        -0.6812
     39 O3         -2.7407   -1.8909   -1.3761 O.2       1 <0>        -0.5788
     40 O4         -9.4019   -6.4907   -4.1779 O.3       1 <0>        -0.4938
     41 O5          0.9879   -6.5072   -0.1510 O.3       1 <0>        -0.6030
     42 O6          2.8703    0.8436   -1.3793 O.3       1 <0>        -0.5860
     43 O7         -3.3494   -4.5480   -2.4129 O.3       1 <0>        -0.6021
     44 H1         -5.3037   -4.6348   -4.7299 H         1 <0>         0.1412
     45 H2         -7.6139   -3.5046   -1.2737 H         1 <0>         0.1451
     46 H3         -7.1248   -6.1323   -5.4555 H         1 <0>         0.1336
     47 H4         -9.4339   -5.0032   -2.0025 H         1 <0>         0.1567
     48 H5          3.5627   -2.8549    0.7003 H         1 <0>         0.0649
     49 H6          2.0259   -2.5829   -0.0837 H         1 <0>         0.0476
     50 H7          2.8567   -4.7427   -0.7790 H         1 <0>         0.0641
     51 H8          3.1032   -5.2618    0.8729 H         1 <0>         0.0484
     52 H9          2.1569   -0.7868    1.7257 H         1 <0>         0.0596
     53 H10         1.5124   -1.2395    3.3116 H         1 <0>         0.0757
     54 H11         1.0921   -5.7802    2.3299 H         1 <0>         0.0782
     55 H12        -0.5175   -5.5090    1.7393 H         1 <0>         0.0812
     56 H13        -0.5378   -0.6778    2.3126 H         1 <0>         0.0731
     57 H14         2.6304   -3.2407    2.8169 H         1 <0>         0.0511
     58 H15         0.4523   -3.8218    3.4319 H         1 <0>         0.0753
     59 H16         0.3841   -4.5700   -0.3844 H         1 <0>         0.0427
     60 H17        -6.4424   -0.5993    0.4810 H         1 <0>         0.0450
     61 H18        -6.3080   -2.1101    1.3767 H         1 <0>         0.0406
     62 H19        -5.1167   -1.7184    0.1225 H         1 <0>         0.0274
     63 H20        -3.5507    0.3732    0.5159 H         1 <0>         0.0476
     64 H21        -4.9709    1.3343    0.9644 H         1 <0>         0.0170
     65 H22        -3.6139    1.1889    2.0888 H         1 <0>         0.0477
     66 H23        -5.6709   -2.2016   -1.9909 H         1 <0>         0.0814
     67 H24        -4.7494   -2.6577   -3.4086 H         1 <0>         0.0685
     68 H25        -1.9092    2.2808   -1.1025 H         1 <0>         0.1016
     69 H26        -1.0467    2.4234    0.4259 H         1 <0>         0.0660
     70 H27         1.1110    2.7323   -0.8028 H         1 <0>         0.0512
     71 H28         0.2685    2.6560   -2.3373 H         1 <0>         0.0454
     72 H29        -3.1790   -0.9587    3.2928 H         1 <0>         0.0575
     73 H30        -4.2588   -2.3274    3.1083 H         1 <0>         0.0743
     74 H31        -1.2027    4.5928   -1.7356 H         1 <0>         0.0662
     75 H32        -0.3220    4.7463   -0.2087 H         1 <0>         0.0622
     76 H33         1.7614    0.6251   -3.0928 H         1 <0>         0.0321
     77 H34         1.8289   -0.7905   -2.0281 H         1 <0>         0.0204
     78 H35        -2.2612   -1.3523    0.9714 H         1 <0>         0.0749
     79 H36        -4.7315   -4.4554   -0.9038 H         1 <0>         0.0719
     80 H37        -5.5109   -0.2494    2.7849 H         1 <0>         0.0609
     81 H38        -0.3978    0.3245   -1.8868 H         1 <0>         0.1063
     82 H39        -4.5782    5.6828    1.1306 H         1 <0>         0.4792
     83 H40        -4.2329    7.3536    0.8111 H         1 <0>         0.4819
     84 H41        -1.0966    6.7983   -0.9251 H         1 <0>         0.4802
     85 H42        -2.2244    8.0035   -0.3744 H         1 <0>         0.4826
     86 H43         0.8216    0.7626    0.7549 H         1 <0>         0.3101
     87 H44        -4.0841   -3.7053    0.9020 H         1 <0>         0.3087
     88 H45        -3.0238    3.9804    0.3791 H         1 <0>         0.4846
     89 H46        -9.0385   -7.2616   -4.6422 H         1 <0>         0.4194
     90 H47         1.8515   -6.8926    0.0654 H         1 <0>         0.4036
     91 H48         2.9636    1.7601   -1.6856 H         1 <0>         0.4114
     92 H49        -3.7637   -4.6264   -3.2877 H         1 <0>         0.3944
@<TRIPOS>BOND
     1    1    3 ar
     2    1    5 ar
     3    2    4 ar
     4    2    5 ar
     5    3    6 ar
     6    4    6 ar
     7    5   21 1
     8    6   40 1
     9    7   15 1
    10    7   34 am
    11    7   37 2
    12    8   27 1
    13    8   31 am
    14    8   38 2
    15    9   28 1
    16    9   35 am
    17    9   39 2
    18   10   32 1
    19   10   33 1
    20   10   36 1
    21   11   12 1
    22   11   16 1
    23   12   18 1
    24   13   15 1
    25   13   16 1
    26   14   17 1
    27   14   18 1
    28   15   31 1
    29   16   17 1
    30   17   31 1
    31   18   41 1
    32   19   29 1
    33   20   29 1
    34   21   28 1
    35   22   23 1
    36   22   25 1
    37   23   30 1
    38   24   27 1
    39   24   29 1
    40   25   36 1
    41   26   30 1
    42   26   42 1
    43   27   35 1
    44   28   43 1
    45   30   34 1
    46    1   44 1
    47    2   45 1
    48    3   46 1
    49    4   47 1
    50   11   48 1
    51   11   49 1
    52   12   50 1
    53   12   51 1
    54   13   52 1
    55   13   53 1
    56   14   54 1
    57   14   55 1
    58   15   56 1
    59   16   57 1
    60   17   58 1
    61   18   59 1
    62   19   60 1
    63   19   61 1
    64   19   62 1
    65   20   63 1
    66   20   64 1
    67   20   65 1
    68   21   66 1
    69   21   67 1
    70   22   68 1
    71   22   69 1
    72   23   70 1
    73   23   71 1
    74   24   72 1
    75   24   73 1
    76   25   74 1
    77   25   75 1
    78   26   76 1
    79   26   77 1
    80   27   78 1
    81   28   79 1
    82   29   80 1
    83   30   81 1
    84   32   82 1
    85   32   83 1
    86   33   84 1
    87   33   85 1
    88   34   86 1
    89   35   87 1
    90   36   88 1
    91   40   89 1
    92   41   90 1
    93   42   91 1
    94   43   92 1
@<TRIPOS>MOLECULE
1a2c_ligand_152
   92    94     0     0     0
SMALL
USER_CHARGES

mmff94s_NoEstat = 113.47
@<TRIPOS>ATOM
      1 C1         -9.0710   -3.1012    0.0189 C.ar      1 <0>        -0.0708
      2 C2         -7.9646   -4.4965    1.6517 C.ar      1 <0>        -0.0872
      3 C3        -10.1182   -4.0195   -0.0562 C.ar      1 <0>        -0.2241
      4 C4         -9.0118   -5.4148    1.5766 C.ar      1 <0>        -0.1600
      5 C5         -8.0083   -3.3520    0.8718 C.ar      1 <0>        -0.1356
      6 C6        -10.0887   -5.1764    0.7226 C.ar      1 <0>         0.1290
      7 C7         -0.0512   -1.0561    0.2993 C.2       1 <0>         0.6664
      8 C8         -1.8469   -3.0457    2.1630 C.2       1 <0>         0.6651
      9 C9         -4.4743   -1.9575    0.3333 C.2       1 <0>         0.6454
     10 C10        -1.8617    5.8535   -2.4401 C.cat     1 <0>         0.6349
     11 C11         2.5186   -3.1911    0.6823 C.3       1 <0>        -0.0642
     12 C12         2.4580   -4.6414    0.2376 C.3       1 <0>        -0.0747
     13 C13         1.4874   -1.4827    2.2418 C.3       1 <0>        -0.0873
     14 C14         0.4946   -5.0934    1.7133 C.3       1 <0>        -0.1371
     15 C15         0.0412   -1.4176    1.7503 C.3       1 <0>         0.0360
     16 C16         1.8865   -2.9529    2.0632 C.3       1 <0>        -0.0720
     17 C17         0.5665   -3.7001    2.3454 C.3       1 <0>         0.1201
     18 C18         1.0248   -5.1525    0.2868 C.3       1 <0>         0.1453
     19 C19        -5.3726   -0.5418    3.1302 C.3       1 <0>        -0.0968
     20 C20        -3.4397    1.0389    2.9738 C.3       1 <0>        -0.0986
     21 C21        -6.8749   -2.3574    0.9537 C.3       1 <0>        -0.0191
     22 C22         0.0133    3.1737   -0.5440 C.3       1 <0>        -0.1009
     23 C23        -0.4337    2.0012   -1.4250 C.3       1 <0>        -0.0942
     24 C24        -2.9973   -1.3585    3.5851 C.3       1 <0>        -0.0988
     25 C25        -0.9571    4.3475   -0.6564 C.3       1 <0>         0.1966
     26 C26         1.9058    0.9774   -1.7696 C.3       1 <0>         0.1128
     27 C27        -2.7865   -1.8644    2.1628 C.3       1 <0>         0.0786
     28 C28        -5.7663   -2.6636   -0.0588 C.3       1 <0>         0.0744
     29 C29        -3.9969   -0.1898    3.6979 C.3       1 <0>        -0.0678
     30 C30         0.4555    0.7445   -1.3388 C.3       1 <0>         0.1065
     31 N1         -0.4979   -2.7598    1.9615 N.am      1 <0>        -0.4315
     32 N2         -1.8979    6.2565   -3.7709 N.pl3     1 <0>        -0.8671
     33 N3         -2.6634    6.5083   -1.5114 N.pl3     1 <0>        -0.8581
     34 N4          0.4455    0.1980   -0.0008 N.am      1 <0>        -0.5687
     35 N5         -3.9799   -2.3853    1.5634 N.am      1 <0>        -0.5746
     36 N6         -1.0298    4.7989   -2.0257 N.pl3     1 <0>        -0.7533
     37 O1         -0.5362   -1.8555   -0.4928 O.2       1 <0>        -0.5843
     38 O2         -2.2998   -4.1783    2.3409 O.2       1 <0>        -0.6812
     39 O3         -3.9527   -1.0962   -0.3713 O.2       1 <0>        -0.5788
     40 O4        -11.1113   -6.0717    0.6505 O.3       1 <0>        -0.4938
     41 O5          0.9879   -6.5072   -0.1510 O.3       1 <0>        -0.6030
     42 O6          2.6391   -0.2366   -1.6731 O.3       1 <0>        -0.5860
     43 O7         -6.1634   -2.1870   -1.3365 O.3       1 <0>        -0.6021
     44 H1         -9.1028   -2.2030   -0.5918 H         1 <0>         0.1412
     45 H2         -7.1297   -4.6904    2.3201 H         1 <0>         0.1451
     46 H3        -10.9542   -3.8281   -0.7231 H         1 <0>         0.1336
     47 H4         -8.9835   -6.3139    2.1866 H         1 <0>         0.1567
     48 H5          3.5627   -2.8549    0.7003 H         1 <0>         0.0649
     49 H6          2.0259   -2.5829   -0.0837 H         1 <0>         0.0476
     50 H7          2.8567   -4.7427   -0.7790 H         1 <0>         0.0641
     51 H8          3.1032   -5.2618    0.8729 H         1 <0>         0.0484
     52 H9          2.1569   -0.7868    1.7257 H         1 <0>         0.0596
     53 H10         1.5124   -1.2395    3.3116 H         1 <0>         0.0757
     54 H11         1.0921   -5.7802    2.3299 H         1 <0>         0.0782
     55 H12        -0.5175   -5.5090    1.7393 H         1 <0>         0.0812
     56 H13        -0.5378   -0.6778    2.3126 H         1 <0>         0.0731
     57 H14         2.6304   -3.2407    2.8169 H         1 <0>         0.0511
     58 H15         0.4523   -3.8218    3.4319 H         1 <0>         0.0753
     59 H16         0.3841   -4.5700   -0.3844 H         1 <0>         0.0427
     60 H17        -6.0375    0.3284    3.1563 H         1 <0>         0.0450
     61 H18        -5.8542   -1.3328    3.7128 H         1 <0>         0.0406
     62 H19        -5.2988   -0.8789    2.0908 H         1 <0>         0.0274
     63 H20        -3.3028    0.8425    1.9049 H         1 <0>         0.0476
     64 H21        -4.1178    1.8926    3.0773 H         1 <0>         0.0170
     65 H22        -2.4708    1.3315    3.3922 H         1 <0>         0.0477
     66 H23        -6.4655   -2.3612    1.9727 H         1 <0>         0.0814
     67 H24        -7.2864   -1.3519    0.8004 H         1 <0>         0.0685
     68 H25         0.0724    2.8576    0.5040 H         1 <0>         0.1016
     69 H26         1.0181    3.5045   -0.8331 H         1 <0>         0.0660
     70 H27        -0.4694    2.3356   -2.4708 H         1 <0>         0.0512
     71 H28        -1.4639    1.7294   -1.1616 H         1 <0>         0.0454
     72 H29        -2.0302   -1.0518    4.0061 H         1 <0>         0.0575
     73 H30        -3.3514   -2.1846    4.2177 H         1 <0>         0.0743
     74 H31        -0.6255    5.1767   -0.0225 H         1 <0>         0.0662
     75 H32        -1.9575    4.0517   -0.3242 H         1 <0>         0.0622
     76 H33         2.4001    1.7344   -1.1517 H         1 <0>         0.0321
     77 H34         1.9468    1.3120   -2.8125 H         1 <0>         0.0204
     78 H35        -2.3647   -1.1082    1.5019 H         1 <0>         0.0749
     79 H36        -5.5777   -3.7409   -0.1372 H         1 <0>         0.0719
     80 H37        -4.1195    0.0762    4.7551 H         1 <0>         0.0609
     81 H38         0.0149    0.0012   -2.0158 H         1 <0>         0.1063
     82 H39        -1.3283    5.8087   -4.4839 H         1 <0>         0.4792
     83 H40        -2.5001    7.0203   -4.0693 H         1 <0>         0.4819
     84 H41        -2.6614    6.2393   -0.5305 H         1 <0>         0.4802
     85 H42        -3.2738    7.2731   -1.7892 H         1 <0>         0.4826
     86 H43         0.8216    0.7626    0.7549 H         1 <0>         0.3101
     87 H44        -4.4957   -3.1095    2.0656 H         1 <0>         0.3087
     88 H45        -0.4591    4.3505   -2.7526 H         1 <0>         0.4846
     89 H46       -11.4852   -6.0838   -0.2450 H         1 <0>         0.4194
     90 H47         1.8515   -6.8926    0.0654 H         1 <0>         0.4036
     91 H48         2.8853   -0.3414   -0.7399 H         1 <0>         0.4114
     92 H49        -7.1203   -2.0275   -1.2920 H         1 <0>         0.3944
@<TRIPOS>BOND
     1    1    3 ar
     2    1    5 ar
     3    2    4 ar
     4    2    5 ar
     5    3    6 ar
     6    4    6 ar
     7    5   21 1
     8    6   40 1
     9    7   15 1
    10    7   34 am
    11    7   37 2
    12    8   27 1
    13    8   31 am
    14    8   38 2
    15    9   28 1
    16    9   35 am
    17    9   39 2
    18   10   32 1
    19   10   33 1
    20   10   36 1
    21   11   12 1
    22   11   16 1
    23   12   18 1
    24   13   15 1
    25   13   16 1
    26   14   17 1
    27   14   18 1
    28   15   31 1
    29   16   17 1
    30   17   31 1
    31   18   41 1
    32   19   29 1
    33   20   29 1
    34   21   28 1
    35   22   23 1
    36   22   25 1
    37   23   30 1
    38   24   27 1
    39   24   29 1
    40   25   36 1
    41   26   30 1
    42   26   42 1
    43   27   35 1
    44   28   43 1
    45   30   34 1
    46    1   44 1
    47    2   45 1
    48    3   46 1
    49    4   47 1
    50   11   48 1
    51   11   49 1
    52   12   50 1
    53   12   51 1
    54   13   52 1
    55   13   53 1
    56   14   54 1
    57   14   55 1
    58   15   56 1
    59   16   57 1
    60   17   58 1
    61   18   59 1
    62   19   60 1
    63   19   61 1
    64   19   62 1
    65   20   63 1
    66   20   64 1
    67   20   65 1
    68   21   66 1
    69   21   67 1
    70   22   68 1
    71   22   69 1
    72   23   70 1
    73   23   71 1
    74   24   72 1
    75   24   73 1
    76   25   74 1
    77   25   75 1
    78   26   76 1
    79   26   77 1
    80   27   78 1
    81   28   79 1
    82   29   80 1
    83   30   81 1
    84   32   82 1
    85   32   83 1
    86   33   84 1
    87   33   85 1
    88   34   86 1
    89   35   87 1
    90   36   88 1
    91   40   89 1
    92   41   90 1
    93   42   91 1
    94   43   92 1
@<TRIPOS>MOLECULE
1a2c_ligand_153
   92    94     0     0     0
SMALL
USER_CHARGES

mmff94s_NoEstat = 113.52
@<TRIPOS>ATOM
      1 C1         -7.3362   -6.7650    0.6803 C.ar      1 <0>        -0.0708
      2 C2         -5.7961   -7.3906   -1.0730 C.ar      1 <0>        -0.0872
      3 C3         -8.2068   -7.7773    0.2767 C.ar      1 <0>        -0.2241
      4 C4         -6.6668   -8.4029   -1.4766 C.ar      1 <0>        -0.1600
      5 C5         -6.1425   -6.5853    0.0001 C.ar      1 <0>        -0.1356
      6 C6         -7.8721   -8.5963   -0.8018 C.ar      1 <0>         0.1290
      7 C7         -0.0512   -1.0561    0.2993 C.2       1 <0>         0.6664
      8 C8         -1.8469   -3.0457    2.1630 C.2       1 <0>         0.6651
      9 C9         -4.2799   -3.2353   -0.1780 C.2       1 <0>         0.6454
     10 C10        -1.8617    5.8535   -2.4401 C.cat     1 <0>         0.6349
     11 C11         2.5186   -3.1911    0.6823 C.3       1 <0>        -0.0642
     12 C12         2.4580   -4.6414    0.2376 C.3       1 <0>        -0.0747
     13 C13         1.4874   -1.4827    2.2418 C.3       1 <0>        -0.0873
     14 C14         0.4946   -5.0934    1.7133 C.3       1 <0>        -0.1371
     15 C15         0.0412   -1.4176    1.7503 C.3       1 <0>         0.0360
     16 C16         1.8865   -2.9529    2.0632 C.3       1 <0>        -0.0720
     17 C17         0.5665   -3.7001    2.3454 C.3       1 <0>         0.1201
     18 C18         1.0248   -5.1525    0.2868 C.3       1 <0>         0.1453
     19 C19        -5.5746   -0.7475    1.4860 C.3       1 <0>        -0.0968
     20 C20        -3.7112    0.7464    0.7408 C.3       1 <0>        -0.0986
     21 C21        -5.1996   -5.4898    0.4375 C.3       1 <0>        -0.0191
     22 C22         0.0133    3.1737   -0.5440 C.3       1 <0>        -0.1009
     23 C23        -0.4337    2.0012   -1.4250 C.3       1 <0>        -0.0942
     24 C24        -3.2372   -1.0062    2.4788 C.3       1 <0>        -0.0988
     25 C25        -0.9571    4.3475   -0.6564 C.3       1 <0>         0.1966
     26 C26         1.9058    0.9774   -1.7696 C.3       1 <0>         0.1128
     27 C27        -2.8325   -2.1090    1.5076 C.3       1 <0>         0.0786
     28 C28        -5.4811   -4.1668   -0.2823 C.3       1 <0>         0.0744
     29 C29        -4.2955   -0.0321    1.9228 C.3       1 <0>        -0.0678
     30 C30         0.4555    0.7445   -1.3388 C.3       1 <0>         0.1065
     31 N1         -0.4979   -2.7598    1.9615 N.am      1 <0>        -0.4315
     32 N2         -1.8979    6.2565   -3.7709 N.pl3     1 <0>        -0.8671
     33 N3         -2.6634    6.5083   -1.5114 N.pl3     1 <0>        -0.8581
     34 N4          0.4455    0.1980   -0.0008 N.am      1 <0>        -0.5687
     35 N5         -3.9193   -2.9688    1.1410 N.am      1 <0>        -0.5746
     36 N6         -1.0298    4.7989   -2.0257 N.pl3     1 <0>        -0.7533
     37 O1         -0.5362   -1.8555   -0.4928 O.2       1 <0>        -0.5843
     38 O2         -2.2659   -3.9924    2.8322 O.2       1 <0>        -0.6812
     39 O3         -3.7165   -2.7712   -1.1667 O.2       1 <0>        -0.5788
     40 O4         -8.7210   -9.5851   -1.1946 O.3       1 <0>        -0.4938
     41 O5          0.9879   -6.5072   -0.1510 O.3       1 <0>        -0.6030
     42 O6          2.6391   -0.2366   -1.6731 O.3       1 <0>        -0.5860
     43 O7         -6.5911   -3.5319    0.3361 O.3       1 <0>        -0.6021
     44 H1         -7.6056   -6.1320    1.5213 H         1 <0>         0.1412
     45 H2         -4.8589   -7.2474   -1.6045 H         1 <0>         0.1451
     46 H3         -9.1441   -7.9230    0.8064 H         1 <0>         0.1336
     47 H4         -6.3999   -9.0383   -2.3170 H         1 <0>         0.1567
     48 H5          3.5627   -2.8549    0.7003 H         1 <0>         0.0649
     49 H6          2.0259   -2.5829   -0.0837 H         1 <0>         0.0476
     50 H7          2.8567   -4.7427   -0.7790 H         1 <0>         0.0641
     51 H8          3.1032   -5.2618    0.8729 H         1 <0>         0.0484
     52 H9          2.1569   -0.7868    1.7257 H         1 <0>         0.0596
     53 H10         1.5124   -1.2395    3.3116 H         1 <0>         0.0757
     54 H11         1.0921   -5.7802    2.3299 H         1 <0>         0.0782
     55 H12        -0.5175   -5.5090    1.7393 H         1 <0>         0.0812
     56 H13        -0.5378   -0.6778    2.3126 H         1 <0>         0.0731
     57 H14         2.6304   -3.2407    2.8169 H         1 <0>         0.0511
     58 H15         0.4523   -3.8218    3.4319 H         1 <0>         0.0753
     59 H16         0.3841   -4.5700   -0.3844 H         1 <0>         0.0427
     60 H17        -6.2768   -0.0422    1.0282 H         1 <0>         0.0450
     61 H18        -6.0867   -1.2049    2.3377 H         1 <0>         0.0406
     62 H19        -5.3599   -1.5330    0.7535 H         1 <0>         0.0274
     63 H20        -3.4369    0.0757   -0.0807 H         1 <0>         0.0476
     64 H21        -4.4352    1.4732    0.3573 H         1 <0>         0.0170
     65 H22        -2.8146    1.2981    1.0427 H         1 <0>         0.0477
     66 H23        -4.1656   -5.8083    0.2490 H         1 <0>         0.0814
     67 H24        -5.2839   -5.3761    1.5256 H         1 <0>         0.0685
     68 H25         0.0724    2.8576    0.5040 H         1 <0>         0.1016
     69 H26         1.0181    3.5045   -0.8331 H         1 <0>         0.0660
     70 H27        -0.4694    2.3356   -2.4708 H         1 <0>         0.0512
     71 H28        -1.4639    1.7294   -1.1616 H         1 <0>         0.0454
     72 H29        -2.3434   -0.4411    2.7760 H         1 <0>         0.0575
     73 H30        -3.6273   -1.4576    3.4018 H         1 <0>         0.0743
     74 H31        -0.6255    5.1767   -0.0225 H         1 <0>         0.0662
     75 H32        -1.9575    4.0517   -0.3242 H         1 <0>         0.0622
     76 H33         2.4001    1.7344   -1.1517 H         1 <0>         0.0321
     77 H34         1.9468    1.3120   -2.8125 H         1 <0>         0.0204
     78 H35        -2.3687   -1.7253    0.5998 H         1 <0>         0.0749
     79 H36        -5.7217   -4.3261   -1.3401 H         1 <0>         0.0719
     80 H37        -4.5575    0.6951    2.7011 H         1 <0>         0.0609
     81 H38         0.0149    0.0012   -2.0158 H         1 <0>         0.1063
     82 H39        -1.3283    5.8087   -4.4839 H         1 <0>         0.4792
     83 H40        -2.5001    7.0203   -4.0693 H         1 <0>         0.4819
     84 H41        -2.6614    6.2393   -0.5305 H         1 <0>         0.4802
     85 H42        -3.2738    7.2731   -1.7892 H         1 <0>         0.4826
     86 H43         0.8216    0.7626    0.7549 H         1 <0>         0.3101
     87 H44        -4.4587   -3.4100    1.8874 H         1 <0>         0.3087
     88 H45        -0.4591    4.3505   -2.7526 H         1 <0>         0.4846
     89 H46        -9.6413   -9.3205   -1.0371 H         1 <0>         0.4194
     90 H47         1.8515   -6.8926    0.0654 H         1 <0>         0.4036
     91 H48         2.8853   -0.3414   -0.7399 H         1 <0>         0.4114
     92 H49        -7.0360   -4.2061    0.8751 H         1 <0>         0.3944
@<TRIPOS>BOND
     1    1    3 ar
     2    1    5 ar
     3    2    4 ar
     4    2    5 ar
     5    3    6 ar
     6    4    6 ar
     7    5   21 1
     8    6   40 1
     9    7   15 1
    10    7   34 am
    11    7   37 2
    12    8   27 1
    13    8   31 am
    14    8   38 2
    15    9   28 1
    16    9   35 am
    17    9   39 2
    18   10   32 1
    19   10   33 1
    20   10   36 1
    21   11   12 1
    22   11   16 1
    23   12   18 1
    24   13   15 1
    25   13   16 1
    26   14   17 1
    27   14   18 1
    28   15   31 1
    29   16   17 1
    30   17   31 1
    31   18   41 1
    32   19   29 1
    33   20   29 1
    34   21   28 1
    35   22   23 1
    36   22   25 1
    37   23   30 1
    38   24   27 1
    39   24   29 1
    40   25   36 1
    41   26   30 1
    42   26   42 1
    43   27   35 1
    44   28   43 1
    45   30   34 1
    46    1   44 1
    47    2   45 1
    48    3   46 1
    49    4   47 1
    50   11   48 1
    51   11   49 1
    52   12   50 1
    53   12   51 1
    54   13   52 1
    55   13   53 1
    56   14   54 1
    57   14   55 1
    58   15   56 1
    59   16   57 1
    60   17   58 1
    61   18   59 1
    62   19   60 1
    63   19   61 1
    64   19   62 1
    65   20   63 1
    66   20   64 1
    67   20   65 1
    68   21   66 1
    69   21   67 1
    70   22   68 1
    71   22   69 1
    72   23   70 1
    73   23   71 1
    74   24   72 1
    75   24   73 1
    76   25   74 1
    77   25   75 1
    78   26   76 1
    79   26   77 1
    80   27   78 1
    81   28   79 1
    82   29   80 1
    83   30   81 1
    84   32   82 1
    85   32   83 1
    86   33   84 1
    87   33   85 1
    88   34   86 1
    89   35   87 1
    90   36   88 1
    91   40   89 1
    92   41   90 1
    93   42   91 1
    94   43   92 1
@<TRIPOS>MOLECULE
1a2c_ligand_154
   92    94     0     0     0
SMALL
USER_CHARGES

mmff94s_NoEstat = 113.56
@<TRIPOS>ATOM
      1 C1         -4.9929   -5.5460   -4.3314 C.ar      1 <0>        -0.0708
      2 C2         -6.2813   -3.5051   -4.2233 C.ar      1 <0>        -0.0872
      3 C3         -6.0094   -6.1484   -5.0726 C.ar      1 <0>        -0.2241
      4 C4         -7.2979   -4.1076   -4.9645 C.ar      1 <0>        -0.1600
      5 C5         -5.1424   -4.2324   -3.9167 C.ar      1 <0>        -0.1356
      6 C6         -7.1619   -5.4292   -5.3891 C.ar      1 <0>         0.1290
      7 C7         -0.0512   -1.0561    0.2993 C.2       1 <0>         0.6664
      8 C8         -1.8469   -3.0457    2.1630 C.2       1 <0>         0.6651
      9 C9         -3.4040   -2.7670   -0.8258 C.2       1 <0>         0.6454
     10 C10        -4.7698    2.2135   -3.1337 C.cat     1 <0>         0.6349
     11 C11         2.5186   -3.1911    0.6823 C.3       1 <0>        -0.0642
     12 C12         2.4580   -4.6414    0.2376 C.3       1 <0>        -0.0747
     13 C13         1.4874   -1.4827    2.2418 C.3       1 <0>        -0.0873
     14 C14         0.4946   -5.0934    1.7133 C.3       1 <0>        -0.1371
     15 C15         0.0412   -1.4176    1.7503 C.3       1 <0>         0.0360
     16 C16         1.8865   -2.9529    2.0632 C.3       1 <0>        -0.0720
     17 C17         0.5665   -3.7001    2.3454 C.3       1 <0>         0.1201
     18 C18         1.0248   -5.1525    0.2868 C.3       1 <0>         0.1453
     19 C19        -5.7275   -1.2982    0.9287 C.3       1 <0>        -0.0968
     20 C20        -4.2097    0.6462    1.3473 C.3       1 <0>        -0.0986
     21 C21        -4.0416   -3.5799   -3.1149 C.3       1 <0>        -0.0191
     22 C22        -0.9951    2.0137   -3.0747 C.3       1 <0>        -0.1009
     23 C23        -0.8794    1.4488   -1.6540 C.3       1 <0>        -0.0942
     24 C24        -3.7699   -1.5150    2.5525 C.3       1 <0>        -0.0988
     25 C25        -2.3255    2.7368   -3.2725 C.3       1 <0>         0.1966
     26 C26         1.6856    1.6412   -1.5001 C.3       1 <0>         0.1128
     27 C27        -2.8325   -2.1090    1.5076 C.3       1 <0>         0.0786
     28 C28        -4.2317   -3.7794   -1.6077 C.3       1 <0>         0.0744
     29 C29        -4.8597   -0.5919    1.9712 C.3       1 <0>        -0.0678
     30 C30         0.4555    0.7445   -1.3388 C.3       1 <0>         0.1065
     31 N1         -0.4979   -2.7598    1.9615 N.am      1 <0>        -0.4315
     32 N2         -5.7943    1.2997   -2.9095 N.pl3     1 <0>        -0.8671
     33 N3         -5.0918    3.5293   -3.4484 N.pl3     1 <0>        -0.8581
     34 N4          0.4455    0.1980   -0.0008 N.am      1 <0>        -0.5687
     35 N5         -3.5026   -2.9419    0.5527 N.am      1 <0>        -0.5746
     36 N6         -3.4217    1.8252   -3.0463 N.pl3     1 <0>        -0.7533
     37 O1         -0.5362   -1.8555   -0.4928 O.2       1 <0>        -0.5843
     38 O2         -2.2659   -3.9924    2.8322 O.2       1 <0>        -0.6812
     39 O3         -2.7407   -1.8909   -1.3761 O.2       1 <0>        -0.5788
     40 O4         -8.1531   -6.0167   -6.1138 O.3       1 <0>        -0.4938
     41 O5          0.9879   -6.5072   -0.1510 O.3       1 <0>        -0.6030
     42 O6          1.5971    2.7470   -0.6113 O.3       1 <0>        -0.5860
     43 O7         -3.7895   -5.0823   -1.2550 O.3       1 <0>        -0.6021
     44 H1         -4.0988   -6.1142   -4.0895 H         1 <0>         0.1412
     45 H2         -6.3958   -2.4747   -3.8969 H         1 <0>         0.1451
     46 H3         -5.8975   -7.1781   -5.4005 H         1 <0>         0.1336
     47 H4         -8.1930   -3.5417   -5.2088 H         1 <0>         0.1567
     48 H5          3.5627   -2.8549    0.7003 H         1 <0>         0.0649
     49 H6          2.0259   -2.5829   -0.0837 H         1 <0>         0.0476
     50 H7          2.8567   -4.7427   -0.7790 H         1 <0>         0.0641
     51 H8          3.1032   -5.2618    0.8729 H         1 <0>         0.0484
     52 H9          2.1569   -0.7868    1.7257 H         1 <0>         0.0596
     53 H10         1.5124   -1.2395    3.3116 H         1 <0>         0.0757
     54 H11         1.0921   -5.7802    2.3299 H         1 <0>         0.0782
     55 H12        -0.5175   -5.5090    1.7393 H         1 <0>         0.0812
     56 H13        -0.5378   -0.6778    2.3126 H         1 <0>         0.0731
     57 H14         2.6304   -3.2407    2.8169 H         1 <0>         0.0511
     58 H15         0.4523   -3.8218    3.4319 H         1 <0>         0.0753
     59 H16         0.3841   -4.5700   -0.3844 H         1 <0>         0.0427
     60 H17        -6.4424   -0.5993    0.4810 H         1 <0>         0.0450
     61 H18        -6.3080   -2.1101    1.3767 H         1 <0>         0.0406
     62 H19        -5.1167   -1.7184    0.1225 H         1 <0>         0.0274
     63 H20        -3.5507    0.3732    0.5159 H         1 <0>         0.0476
     64 H21        -4.9709    1.3343    0.9644 H         1 <0>         0.0170
     65 H22        -3.6139    1.1889    2.0888 H         1 <0>         0.0477
     66 H23        -4.0106   -2.5080   -3.3518 H         1 <0>         0.0814
     67 H24        -3.0807   -3.9886   -3.4518 H         1 <0>         0.0685
     68 H25        -0.1747    2.7139   -3.2707 H         1 <0>         0.1016
     69 H26        -0.9072    1.2071   -3.8124 H         1 <0>         0.0660
     70 H27        -1.7000    0.7382   -1.4859 H         1 <0>         0.0512
     71 H28        -1.0340    2.2618   -0.9330 H         1 <0>         0.0454
     72 H29        -3.1790   -0.9587    3.2928 H         1 <0>         0.0575
     73 H30        -4.2588   -2.3274    3.1083 H         1 <0>         0.0743
     74 H31        -2.3940    3.1346   -4.2905 H         1 <0>         0.0662
     75 H32        -2.4118    3.5787   -2.5778 H         1 <0>         0.0622
     76 H33         1.7842    2.0214   -2.5223 H         1 <0>         0.0321
     77 H34         2.5988    1.0866   -1.2555 H         1 <0>         0.0204
     78 H35        -2.2612   -1.3523    0.9714 H         1 <0>         0.0749
     79 H36        -5.2848   -3.6836   -1.3176 H         1 <0>         0.0719
     80 H37        -5.5109   -0.2494    2.7849 H         1 <0>         0.0609
     81 H38         0.5463   -0.0881   -2.0483 H         1 <0>         0.1063
     82 H39        -5.6066    0.3277   -2.6788 H         1 <0>         0.4792
     83 H40        -6.7696    1.5821   -2.9737 H         1 <0>         0.4819
     84 H41        -4.3678    4.2231   -3.6185 H         1 <0>         0.4802
     85 H42        -6.0604    3.8326   -3.5158 H         1 <0>         0.4826
     86 H43         0.8216    0.7626    0.7549 H         1 <0>         0.3101
     87 H44        -4.0841   -3.7053    0.9020 H         1 <0>         0.3087
     88 H45        -3.2407    0.8418   -2.8107 H         1 <0>         0.4846
     89 H46        -8.1971   -6.9658   -5.9160 H         1 <0>         0.4194
     90 H47         1.8515   -6.8926    0.0654 H         1 <0>         0.4036
     91 H48         1.0115    3.3975   -1.0313 H         1 <0>         0.4114
     92 H49        -3.7253   -5.5902   -2.0803 H         1 <0>         0.3944
@<TRIPOS>BOND
     1    1    3 ar
     2    1    5 ar
     3    2    4 ar
     4    2    5 ar
     5    3    6 ar
     6    4    6 ar
     7    5   21 1
     8    6   40 1
     9    7   15 1
    10    7   34 am
    11    7   37 2
    12    8   27 1
    13    8   31 am
    14    8   38 2
    15    9   28 1
    16    9   35 am
    17    9   39 2
    18   10   32 1
    19   10   33 1
    20   10   36 1
    21   11   12 1
    22   11   16 1
    23   12   18 1
    24   13   15 1
    25   13   16 1
    26   14   17 1
    27   14   18 1
    28   15   31 1
    29   16   17 1
    30   17   31 1
    31   18   41 1
    32   19   29 1
    33   20   29 1
    34   21   28 1
    35   22   23 1
    36   22   25 1
    37   23   30 1
    38   24   27 1
    39   24   29 1
    40   25   36 1
    41   26   30 1
    42   26   42 1
    43   27   35 1
    44   28   43 1
    45   30   34 1
    46    1   44 1
    47    2   45 1
    48    3   46 1
    49    4   47 1
    50   11   48 1
    51   11   49 1
    52   12   50 1
    53   12   51 1
    54   13   52 1
    55   13   53 1
    56   14   54 1
    57   14   55 1
    58   15   56 1
    59   16   57 1
    60   17   58 1
    61   18   59 1
    62   19   60 1
    63   19   61 1
    64   19   62 1
    65   20   63 1
    66   20   64 1
    67   20   65 1
    68   21   66 1
    69   21   67 1
    70   22   68 1
    71   22   69 1
    72   23   70 1
    73   23   71 1
    74   24   72 1
    75   24   73 1
    76   25   74 1
    77   25   75 1
    78   26   76 1
    79   26   77 1
    80   27   78 1
    81   28   79 1
    82   29   80 1
    83   30   81 1
    84   32   82 1
    85   32   83 1
    86   33   84 1
    87   33   85 1
    88   34   86 1
    89   35   87 1
    90   36   88 1
    91   40   89 1
    92   41   90 1
    93   42   91 1
    94   43   92 1
@<TRIPOS>MOLECULE
1a2c_ligand_155
   92    94     0     0     0
SMALL
USER_CHARGES

mmff94s_NoEstat = 113.65
@<TRIPOS>ATOM
      1 C1         -7.3362   -6.7650    0.6803 C.ar      1 <0>        -0.0708
      2 C2         -5.7961   -7.3906   -1.0730 C.ar      1 <0>        -0.0872
      3 C3         -8.2068   -7.7773    0.2767 C.ar      1 <0>        -0.2241
      4 C4         -6.6668   -8.4029   -1.4766 C.ar      1 <0>        -0.1600
      5 C5         -6.1425   -6.5853    0.0001 C.ar      1 <0>        -0.1356
      6 C6         -7.8721   -8.5963   -0.8018 C.ar      1 <0>         0.1290
      7 C7         -0.0512   -1.0561    0.2993 C.2       1 <0>         0.6664
      8 C8         -1.8469   -3.0457    2.1630 C.2       1 <0>         0.6651
      9 C9         -4.2799   -3.2353   -0.1780 C.2       1 <0>         0.6454
     10 C10         0.1087    6.2839    0.0320 C.cat     1 <0>         0.6349
     11 C11         2.5186   -3.1911    0.6823 C.3       1 <0>        -0.0642
     12 C12         2.4580   -4.6414    0.2376 C.3       1 <0>        -0.0747
     13 C13         1.4874   -1.4827    2.2418 C.3       1 <0>        -0.0873
     14 C14         0.4946   -5.0934    1.7133 C.3       1 <0>        -0.1371
     15 C15         0.0412   -1.4176    1.7503 C.3       1 <0>         0.0360
     16 C16         1.8865   -2.9529    2.0632 C.3       1 <0>        -0.0720
     17 C17         0.5665   -3.7001    2.3454 C.3       1 <0>         0.1201
     18 C18         1.0248   -5.1525    0.2868 C.3       1 <0>         0.1453
     19 C19        -5.5746   -0.7475    1.4860 C.3       1 <0>        -0.0968
     20 C20        -3.7112    0.7464    0.7408 C.3       1 <0>        -0.0986
     21 C21        -5.1996   -5.4898    0.4375 C.3       1 <0>        -0.0191
     22 C22        -1.0374    2.7415   -0.6235 C.3       1 <0>        -0.1009
     23 C23         0.2513    2.2726   -1.3090 C.3       1 <0>        -0.0942
     24 C24        -3.2372   -1.0062    2.4788 C.3       1 <0>        -0.0988
     25 C25        -1.1758    4.2607   -0.6924 C.3       1 <0>         0.1966
     26 C26         1.7383    0.3016   -2.0469 C.3       1 <0>         0.1128
     27 C27        -2.8325   -2.1090    1.5076 C.3       1 <0>         0.0786
     28 C28        -5.4811   -4.1668   -0.2823 C.3       1 <0>         0.0744
     29 C29        -4.2955   -0.0321    1.9228 C.3       1 <0>        -0.0678
     30 C30         0.4555    0.7445   -1.3388 C.3       1 <0>         0.1065
     31 N1         -0.4979   -2.7598    1.9615 N.am      1 <0>        -0.4315
     32 N2          1.2089    6.8461    0.6711 N.pl3     1 <0>        -0.8671
     33 N3         -0.8437    7.1205   -0.5399 N.pl3     1 <0>        -0.8581
     34 N4          0.4455    0.1980   -0.0008 N.am      1 <0>        -0.5687
     35 N5         -3.9193   -2.9688    1.1410 N.am      1 <0>        -0.5746
     36 N6         -0.0506    4.8893   -0.0421 N.pl3     1 <0>        -0.7533
     37 O1         -0.5362   -1.8555   -0.4928 O.2       1 <0>        -0.5843
     38 O2         -2.2659   -3.9924    2.8322 O.2       1 <0>        -0.6812
     39 O3         -3.7165   -2.7712   -1.1667 O.2       1 <0>        -0.5788
     40 O4         -8.7210   -9.5851   -1.1946 O.3       1 <0>        -0.4938
     41 O5          0.9879   -6.5072   -0.1510 O.3       1 <0>        -0.6030
     42 O6          2.8703    0.8436   -1.3793 O.3       1 <0>        -0.5860
     43 O7         -6.5911   -3.5319    0.3361 O.3       1 <0>        -0.6021
     44 H1         -7.6056   -6.1320    1.5213 H         1 <0>         0.1412
     45 H2         -4.8589   -7.2474   -1.6045 H         1 <0>         0.1451
     46 H3         -9.1441   -7.9230    0.8064 H         1 <0>         0.1336
     47 H4         -6.3999   -9.0383   -2.3170 H         1 <0>         0.1567
     48 H5          3.5627   -2.8549    0.7003 H         1 <0>         0.0649
     49 H6          2.0259   -2.5829   -0.0837 H         1 <0>         0.0476
     50 H7          2.8567   -4.7427   -0.7790 H         1 <0>         0.0641
     51 H8          3.1032   -5.2618    0.8729 H         1 <0>         0.0484
     52 H9          2.1569   -0.7868    1.7257 H         1 <0>         0.0596
     53 H10         1.5124   -1.2395    3.3116 H         1 <0>         0.0757
     54 H11         1.0921   -5.7802    2.3299 H         1 <0>         0.0782
     55 H12        -0.5175   -5.5090    1.7393 H         1 <0>         0.0812
     56 H13        -0.5378   -0.6778    2.3126 H         1 <0>         0.0731
     57 H14         2.6304   -3.2407    2.8169 H         1 <0>         0.0511
     58 H15         0.4523   -3.8218    3.4319 H         1 <0>         0.0753
     59 H16         0.3841   -4.5700   -0.3844 H         1 <0>         0.0427
     60 H17        -6.2768   -0.0422    1.0282 H         1 <0>         0.0450
     61 H18        -6.0867   -1.2049    2.3377 H         1 <0>         0.0406
     62 H19        -5.3599   -1.5330    0.7535 H         1 <0>         0.0274
     63 H20        -3.4369    0.0757   -0.0807 H         1 <0>         0.0476
     64 H21        -4.4352    1.4732    0.3573 H         1 <0>         0.0170
     65 H22        -2.8146    1.2981    1.0427 H         1 <0>         0.0477
     66 H23        -4.1656   -5.8083    0.2490 H         1 <0>         0.0814
     67 H24        -5.2839   -5.3761    1.5256 H         1 <0>         0.0685
     68 H25        -1.9092    2.2808   -1.1025 H         1 <0>         0.1016
     69 H26        -1.0467    2.4234    0.4259 H         1 <0>         0.0660
     70 H27         1.1110    2.7323   -0.8028 H         1 <0>         0.0512
     71 H28         0.2685    2.6560   -2.3373 H         1 <0>         0.0454
     72 H29        -2.3434   -0.4411    2.7760 H         1 <0>         0.0575
     73 H30        -3.6273   -1.4576    3.4018 H         1 <0>         0.0743
     74 H31        -2.0997    4.5809   -0.1994 H         1 <0>         0.0662
     75 H32        -1.2190    4.5954   -1.7340 H         1 <0>         0.0622
     76 H33         1.7614    0.6251   -3.0928 H         1 <0>         0.0321
     77 H34         1.8289   -0.7905   -2.0281 H         1 <0>         0.0204
     78 H35        -2.3687   -1.7253    0.5998 H         1 <0>         0.0749
     79 H36        -5.7217   -4.3261   -1.3401 H         1 <0>         0.0719
     80 H37        -4.5575    0.6951    2.7011 H         1 <0>         0.0609
     81 H38        -0.3978    0.3245   -1.8868 H         1 <0>         0.1063
     82 H39         1.9287    6.2742    1.1048 H         1 <0>         0.4792
     83 H40         1.3225    7.8557    0.7245 H         1 <0>         0.4819
     84 H41        -1.6601    6.7429   -1.0146 H         1 <0>         0.4802
     85 H42        -0.7481    8.1323   -0.4992 H         1 <0>         0.4826
     86 H43         0.8216    0.7626    0.7549 H         1 <0>         0.3101
     87 H44        -4.4587   -3.4100    1.8874 H         1 <0>         0.3087
     88 H45         0.6822    4.3187    0.3968 H         1 <0>         0.4846
     89 H46        -9.6413   -9.3205   -1.0371 H         1 <0>         0.4194
     90 H47         1.8515   -6.8926    0.0654 H         1 <0>         0.4036
     91 H48         2.9636    1.7601   -1.6856 H         1 <0>         0.4114
     92 H49        -7.0360   -4.2061    0.8751 H         1 <0>         0.3944
@<TRIPOS>BOND
     1    1    3 ar
     2    1    5 ar
     3    2    4 ar
     4    2    5 ar
     5    3    6 ar
     6    4    6 ar
     7    5   21 1
     8    6   40 1
     9    7   15 1
    10    7   34 am
    11    7   37 2
    12    8   27 1
    13    8   31 am
    14    8   38 2
    15    9   28 1
    16    9   35 am
    17    9   39 2
    18   10   32 1
    19   10   33 1
    20   10   36 1
    21   11   12 1
    22   11   16 1
    23   12   18 1
    24   13   15 1
    25   13   16 1
    26   14   17 1
    27   14   18 1
    28   15   31 1
    29   16   17 1
    30   17   31 1
    31   18   41 1
    32   19   29 1
    33   20   29 1
    34   21   28 1
    35   22   23 1
    36   22   25 1
    37   23   30 1
    38   24   27 1
    39   24   29 1
    40   25   36 1
    41   26   30 1
    42   26   42 1
    43   27   35 1
    44   28   43 1
    45   30   34 1
    46    1   44 1
    47    2   45 1
    48    3   46 1
    49    4   47 1
    50   11   48 1
    51   11   49 1
    52   12   50 1
    53   12   51 1
    54   13   52 1
    55   13   53 1
    56   14   54 1
    57   14   55 1
    58   15   56 1
    59   16   57 1
    60   17   58 1
    61   18   59 1
    62   19   60 1
    63   19   61 1
    64   19   62 1
    65   20   63 1
    66   20   64 1
    67   20   65 1
    68   21   66 1
    69   21   67 1
    70   22   68 1
    71   22   69 1
    72   23   70 1
    73   23   71 1
    74   24   72 1
    75   24   73 1
    76   25   74 1
    77   25   75 1
    78   26   76 1
    79   26   77 1
    80   27   78 1
    81   28   79 1
    82   29   80 1
    83   30   81 1
    84   32   82 1
    85   32   83 1
    86   33   84 1
    87   33   85 1
    88   34   86 1
    89   35   87 1
    90   36   88 1
    91   40   89 1
    92   41   90 1
    93   42   91 1
    94   43   92 1
@<TRIPOS>MOLECULE
1a2c_ligand_156
   92    94     0     0     0
SMALL
USER_CHARGES

mmff94s_NoEstat = 113.80
@<TRIPOS>ATOM
      1 C1         -9.0710   -3.1012    0.0189 C.ar      1 <0>        -0.0708
      2 C2         -7.9646   -4.4965    1.6517 C.ar      1 <0>        -0.0872
      3 C3        -10.1182   -4.0195   -0.0562 C.ar      1 <0>        -0.2241
      4 C4         -9.0118   -5.4148    1.5766 C.ar      1 <0>        -0.1600
      5 C5         -8.0083   -3.3520    0.8718 C.ar      1 <0>        -0.1356
      6 C6        -10.0887   -5.1764    0.7226 C.ar      1 <0>         0.1290
      7 C7         -0.0512   -1.0561    0.2993 C.2       1 <0>         0.6664
      8 C8         -1.8469   -3.0457    2.1630 C.2       1 <0>         0.6651
      9 C9         -4.4743   -1.9575    0.3333 C.2       1 <0>         0.6454
     10 C10         4.3140   -0.8640   -5.2229 C.cat     1 <0>         0.6349
     11 C11         2.5186   -3.1911    0.6823 C.3       1 <0>        -0.0642
     12 C12         2.4580   -4.6414    0.2376 C.3       1 <0>        -0.0747
     13 C13         1.4874   -1.4827    2.2418 C.3       1 <0>        -0.0873
     14 C14         0.4946   -5.0934    1.7133 C.3       1 <0>        -0.1371
     15 C15         0.0412   -1.4176    1.7503 C.3       1 <0>         0.0360
     16 C16         1.8865   -2.9529    2.0632 C.3       1 <0>        -0.0720
     17 C17         0.5665   -3.7001    2.3454 C.3       1 <0>         0.1201
     18 C18         1.0248   -5.1525    0.2868 C.3       1 <0>         0.1453
     19 C19        -5.3726   -0.5418    3.1302 C.3       1 <0>        -0.0968
     20 C20        -3.4397    1.0389    2.9738 C.3       1 <0>        -0.0986
     21 C21        -6.8749   -2.3574    0.9537 C.3       1 <0>        -0.0191
     22 C22         2.8091   -0.2380   -1.8118 C.3       1 <0>        -0.1009
     23 C23         1.3524   -0.0970   -2.2688 C.3       1 <0>        -0.0942
     24 C24        -2.9973   -1.3585    3.5851 C.3       1 <0>        -0.0988
     25 C25         3.6273   -1.0396   -2.8217 C.3       1 <0>         0.1966
     26 C26        -0.9878    0.8875   -1.8280 C.3       1 <0>         0.1128
     27 C27        -2.7865   -1.8644    2.1628 C.3       1 <0>         0.0786
     28 C28        -5.7663   -2.6636   -0.0588 C.3       1 <0>         0.0744
     29 C29        -3.9969   -0.1898    3.6979 C.3       1 <0>        -0.0678
     30 C30         0.4555    0.7445   -1.3388 C.3       1 <0>         0.1065
     31 N1         -0.4979   -2.7598    1.9615 N.am      1 <0>        -0.4315
     32 N2          4.2803   -0.1880   -6.4381 N.pl3     1 <0>        -0.8671
     33 N3          5.0441   -2.0434   -5.1232 N.pl3     1 <0>        -0.8581
     34 N4          0.4455    0.1980   -0.0008 N.am      1 <0>        -0.5687
     35 N5         -3.9799   -2.3853    1.5634 N.am      1 <0>        -0.5746
     36 N6          3.6234   -0.3721   -4.1018 N.pl3     1 <0>        -0.7533
     37 O1         -0.5362   -1.8555   -0.4928 O.2       1 <0>        -0.5843
     38 O2         -2.2998   -4.1783    2.3409 O.2       1 <0>        -0.6812
     39 O3         -3.9527   -1.0962   -0.3713 O.2       1 <0>        -0.5788
     40 O4        -11.1113   -6.0717    0.6505 O.3       1 <0>        -0.4938
     41 O5          0.9879   -6.5072   -0.1510 O.3       1 <0>        -0.6030
     42 O6         -1.7287    1.6906   -0.9186 O.3       1 <0>        -0.5860
     43 O7         -6.1634   -2.1870   -1.3365 O.3       1 <0>        -0.6021
     44 H1         -9.1028   -2.2030   -0.5918 H         1 <0>         0.1412
     45 H2         -7.1297   -4.6904    2.3201 H         1 <0>         0.1451
     46 H3        -10.9542   -3.8281   -0.7231 H         1 <0>         0.1336
     47 H4         -8.9835   -6.3139    2.1866 H         1 <0>         0.1567
     48 H5          3.5627   -2.8549    0.7003 H         1 <0>         0.0649
     49 H6          2.0259   -2.5829   -0.0837 H         1 <0>         0.0476
     50 H7          2.8567   -4.7427   -0.7790 H         1 <0>         0.0641
     51 H8          3.1032   -5.2618    0.8729 H         1 <0>         0.0484
     52 H9          2.1569   -0.7868    1.7257 H         1 <0>         0.0596
     53 H10         1.5124   -1.2395    3.3116 H         1 <0>         0.0757
     54 H11         1.0921   -5.7802    2.3299 H         1 <0>         0.0782
     55 H12        -0.5175   -5.5090    1.7393 H         1 <0>         0.0812
     56 H13        -0.5378   -0.6778    2.3126 H         1 <0>         0.0731
     57 H14         2.6304   -3.2407    2.8169 H         1 <0>         0.0511
     58 H15         0.4523   -3.8218    3.4319 H         1 <0>         0.0753
     59 H16         0.3841   -4.5700   -0.3844 H         1 <0>         0.0427
     60 H17        -6.0375    0.3284    3.1563 H         1 <0>         0.0450
     61 H18        -5.8542   -1.3328    3.7128 H         1 <0>         0.0406
     62 H19        -5.2988   -0.8789    2.0908 H         1 <0>         0.0274
     63 H20        -3.3028    0.8425    1.9049 H         1 <0>         0.0476
     64 H21        -4.1178    1.8926    3.0773 H         1 <0>         0.0170
     65 H22        -2.4708    1.3315    3.3922 H         1 <0>         0.0477
     66 H23        -6.4655   -2.3612    1.9727 H         1 <0>         0.0814
     67 H24        -7.2864   -1.3519    0.8004 H         1 <0>         0.0685
     68 H25         3.2637    0.7519   -1.6883 H         1 <0>         0.1016
     69 H26         2.8542   -0.7324   -0.8340 H         1 <0>         0.0660
     70 H27         0.9126   -1.0986   -2.3693 H         1 <0>         0.0512
     71 H28         1.3348    0.3408   -3.2751 H         1 <0>         0.0454
     72 H29        -2.0302   -1.0518    4.0061 H         1 <0>         0.0575
     73 H30        -3.3514   -2.1846    4.2177 H         1 <0>         0.0743
     74 H31         3.2070   -2.0439   -2.9397 H         1 <0>         0.0662
     75 H32         4.6614   -1.1478   -2.4785 H         1 <0>         0.0622
     76 H33        -1.4861   -0.0829   -1.9233 H         1 <0>         0.0321
     77 H34        -1.0136    1.3790   -2.8073 H         1 <0>         0.0204
     78 H35        -2.3647   -1.1082    1.5019 H         1 <0>         0.0749
     79 H36        -5.5777   -3.7409   -0.1372 H         1 <0>         0.0719
     80 H37        -4.1195    0.0762    4.7551 H         1 <0>         0.0609
     81 H38         0.9010    1.7469   -1.2960 H         1 <0>         0.1063
     82 H39         3.7586    0.6761   -6.5582 H         1 <0>         0.4792
     83 H40         4.7802   -0.5455   -7.2489 H         1 <0>         0.4819
     84 H41         5.0901   -2.5628   -4.2499 H         1 <0>         0.4802
     85 H42         5.5525   -2.4170   -5.9211 H         1 <0>         0.4826
     86 H43         0.8216    0.7626    0.7549 H         1 <0>         0.3101
     87 H44        -4.4957   -3.1095    2.0656 H         1 <0>         0.3087
     88 H45         3.1004    0.5025   -4.2311 H         1 <0>         0.4846
     89 H46       -11.4852   -6.0838   -0.2450 H         1 <0>         0.4194
     90 H47         1.8515   -6.8926    0.0654 H         1 <0>         0.4036
     91 H48        -1.9874    1.1133   -0.1822 H         1 <0>         0.4114
     92 H49        -7.1203   -2.0275   -1.2920 H         1 <0>         0.3944
@<TRIPOS>BOND
     1    1    3 ar
     2    1    5 ar
     3    2    4 ar
     4    2    5 ar
     5    3    6 ar
     6    4    6 ar
     7    5   21 1
     8    6   40 1
     9    7   15 1
    10    7   34 am
    11    7   37 2
    12    8   27 1
    13    8   31 am
    14    8   38 2
    15    9   28 1
    16    9   35 am
    17    9   39 2
    18   10   32 1
    19   10   33 1
    20   10   36 1
    21   11   12 1
    22   11   16 1
    23   12   18 1
    24   13   15 1
    25   13   16 1
    26   14   17 1
    27   14   18 1
    28   15   31 1
    29   16   17 1
    30   17   31 1
    31   18   41 1
    32   19   29 1
    33   20   29 1
    34   21   28 1
    35   22   23 1
    36   22   25 1
    37   23   30 1
    38   24   27 1
    39   24   29 1
    40   25   36 1
    41   26   30 1
    42   26   42 1
    43   27   35 1
    44   28   43 1
    45   30   34 1
    46    1   44 1
    47    2   45 1
    48    3   46 1
    49    4   47 1
    50   11   48 1
    51   11   49 1
    52   12   50 1
    53   12   51 1
    54   13   52 1
    55   13   53 1
    56   14   54 1
    57   14   55 1
    58   15   56 1
    59   16   57 1
    60   17   58 1
    61   18   59 1
    62   19   60 1
    63   19   61 1
    64   19   62 1
    65   20   63 1
    66   20   64 1
    67   20   65 1
    68   21   66 1
    69   21   67 1
    70   22   68 1
    71   22   69 1
    72   23   70 1
    73   23   71 1
    74   24   72 1
    75   24   73 1
    76   25   74 1
    77   25   75 1
    78   26   76 1
    79   26   77 1
    80   27   78 1
    81   28   79 1
    82   29   80 1
    83   30   81 1
    84   32   82 1
    85   32   83 1
    86   33   84 1
    87   33   85 1
    88   34   86 1
    89   35   87 1
    90   36   88 1
    91   40   89 1
    92   41   90 1
    93   42   91 1
    94   43   92 1
@<TRIPOS>MOLECULE
1a2c_ligand_157
   92    94     0     0     0
SMALL
USER_CHARGES

mmff94s_NoEstat = 113.85
@<TRIPOS>ATOM
      1 C1         -4.9929   -5.5460   -4.3314 C.ar      1 <0>        -0.0708
      2 C2         -6.2813   -3.5051   -4.2233 C.ar      1 <0>        -0.0872
      3 C3         -6.0094   -6.1484   -5.0726 C.ar      1 <0>        -0.2241
      4 C4         -7.2979   -4.1076   -4.9645 C.ar      1 <0>        -0.1600
      5 C5         -5.1424   -4.2324   -3.9167 C.ar      1 <0>        -0.1356
      6 C6         -7.1619   -5.4292   -5.3891 C.ar      1 <0>         0.1290
      7 C7         -0.0512   -1.0561    0.2993 C.2       1 <0>         0.6664
      8 C8         -1.8469   -3.0457    2.1630 C.2       1 <0>         0.6651
      9 C9         -3.4040   -2.7670   -0.8258 C.2       1 <0>         0.6454
     10 C10        -1.3680    6.0369   -2.4463 C.cat     1 <0>         0.6349
     11 C11         2.5186   -3.1911    0.6823 C.3       1 <0>        -0.0642
     12 C12         2.4580   -4.6414    0.2376 C.3       1 <0>        -0.0747
     13 C13         1.4874   -1.4827    2.2418 C.3       1 <0>        -0.0873
     14 C14         0.4946   -5.0934    1.7133 C.3       1 <0>        -0.1371
     15 C15         0.0412   -1.4176    1.7503 C.3       1 <0>         0.0360
     16 C16         1.8865   -2.9529    2.0632 C.3       1 <0>        -0.0720
     17 C17         0.5665   -3.7001    2.3454 C.3       1 <0>         0.1201
     18 C18         1.0248   -5.1525    0.2868 C.3       1 <0>         0.1453
     19 C19        -5.7275   -1.2982    0.9287 C.3       1 <0>        -0.0968
     20 C20        -4.2097    0.6462    1.3473 C.3       1 <0>        -0.0986
     21 C21        -4.0416   -3.5799   -3.1149 C.3       1 <0>        -0.0191
     22 C22        -1.0374    2.7415   -0.6235 C.3       1 <0>        -0.1009
     23 C23         0.2513    2.2726   -1.3090 C.3       1 <0>        -0.0942
     24 C24        -3.7699   -1.5150    2.5525 C.3       1 <0>        -0.0988
     25 C25        -1.1758    4.2607   -0.6924 C.3       1 <0>         0.1966
     26 C26         1.7383    0.3016   -2.0469 C.3       1 <0>         0.1128
     27 C27        -2.8325   -2.1090    1.5076 C.3       1 <0>         0.0786
     28 C28        -4.2317   -3.7794   -1.6077 C.3       1 <0>         0.0744
     29 C29        -4.8597   -0.5919    1.9712 C.3       1 <0>        -0.0678
     30 C30         0.4555    0.7445   -1.3388 C.3       1 <0>         0.1065
     31 N1         -0.4979   -2.7598    1.9615 N.am      1 <0>        -0.4315
     32 N2         -1.4040    6.4058   -3.7870 N.pl3     1 <0>        -0.8671
     33 N3         -1.4802    7.0203   -1.4694 N.pl3     1 <0>        -0.8581
     34 N4          0.4455    0.1980   -0.0008 N.am      1 <0>        -0.5687
     35 N5         -3.5026   -2.9419    0.5527 N.am      1 <0>        -0.5746
     36 N6         -1.2206    4.6907   -2.0698 N.pl3     1 <0>        -0.7533
     37 O1         -0.5362   -1.8555   -0.4928 O.2       1 <0>        -0.5843
     38 O2         -2.2659   -3.9924    2.8322 O.2       1 <0>        -0.6812
     39 O3         -2.7407   -1.8909   -1.3761 O.2       1 <0>        -0.5788
     40 O4         -8.1531   -6.0167   -6.1138 O.3       1 <0>        -0.4938
     41 O5          0.9879   -6.5072   -0.1510 O.3       1 <0>        -0.6030
     42 O6          2.8703    0.8436   -1.3793 O.3       1 <0>        -0.5860
     43 O7         -3.7895   -5.0823   -1.2550 O.3       1 <0>        -0.6021
     44 H1         -4.0988   -6.1142   -4.0895 H         1 <0>         0.1412
     45 H2         -6.3958   -2.4747   -3.8969 H         1 <0>         0.1451
     46 H3         -5.8975   -7.1781   -5.4005 H         1 <0>         0.1336
     47 H4         -8.1930   -3.5417   -5.2088 H         1 <0>         0.1567
     48 H5          3.5627   -2.8549    0.7003 H         1 <0>         0.0649
     49 H6          2.0259   -2.5829   -0.0837 H         1 <0>         0.0476
     50 H7          2.8567   -4.7427   -0.7790 H         1 <0>         0.0641
     51 H8          3.1032   -5.2618    0.8729 H         1 <0>         0.0484
     52 H9          2.1569   -0.7868    1.7257 H         1 <0>         0.0596
     53 H10         1.5124   -1.2395    3.3116 H         1 <0>         0.0757
     54 H11         1.0921   -5.7802    2.3299 H         1 <0>         0.0782
     55 H12        -0.5175   -5.5090    1.7393 H         1 <0>         0.0812
     56 H13        -0.5378   -0.6778    2.3126 H         1 <0>         0.0731
     57 H14         2.6304   -3.2407    2.8169 H         1 <0>         0.0511
     58 H15         0.4523   -3.8218    3.4319 H         1 <0>         0.0753
     59 H16         0.3841   -4.5700   -0.3844 H         1 <0>         0.0427
     60 H17        -6.4424   -0.5993    0.4810 H         1 <0>         0.0450
     61 H18        -6.3080   -2.1101    1.3767 H         1 <0>         0.0406
     62 H19        -5.1167   -1.7184    0.1225 H         1 <0>         0.0274
     63 H20        -3.5507    0.3732    0.5159 H         1 <0>         0.0476
     64 H21        -4.9709    1.3343    0.9644 H         1 <0>         0.0170
     65 H22        -3.6139    1.1889    2.0888 H         1 <0>         0.0477
     66 H23        -4.0106   -2.5080   -3.3518 H         1 <0>         0.0814
     67 H24        -3.0807   -3.9886   -3.4518 H         1 <0>         0.0685
     68 H25        -1.9092    2.2808   -1.1025 H         1 <0>         0.1016
     69 H26        -1.0467    2.4234    0.4259 H         1 <0>         0.0660
     70 H27         1.1110    2.7323   -0.8028 H         1 <0>         0.0512
     71 H28         0.2685    2.6560   -2.3373 H         1 <0>         0.0454
     72 H29        -3.1790   -0.9587    3.2928 H         1 <0>         0.0575
     73 H30        -4.2588   -2.3274    3.1083 H         1 <0>         0.0743
     74 H31        -0.3281    4.7425   -0.1937 H         1 <0>         0.0662
     75 H32        -2.0906    4.5862   -0.1866 H         1 <0>         0.0622
     76 H33         1.7614    0.6251   -3.0928 H         1 <0>         0.0321
     77 H34         1.8289   -0.7905   -2.0281 H         1 <0>         0.0204
     78 H35        -2.2612   -1.3523    0.9714 H         1 <0>         0.0749
     79 H36        -5.2848   -3.6836   -1.3176 H         1 <0>         0.0719
     80 H37        -5.5109   -0.2494    2.7849 H         1 <0>         0.0609
     81 H38        -0.3978    0.3245   -1.8868 H         1 <0>         0.1063
     82 H39        -1.3238    5.7221   -4.5349 H         1 <0>         0.4792
     83 H40        -1.5101    7.3807   -4.0580 H         1 <0>         0.4819
     84 H41        -1.4576    6.7856   -0.4800 H         1 <0>         0.4802
     85 H42        -1.5888    8.0004   -1.7189 H         1 <0>         0.4826
     86 H43         0.8216    0.7626    0.7549 H         1 <0>         0.3101
     87 H44        -4.0841   -3.7053    0.9020 H         1 <0>         0.3087
     88 H45        -1.1423    4.0061   -2.8316 H         1 <0>         0.4846
     89 H46        -8.1971   -6.9658   -5.9160 H         1 <0>         0.4194
     90 H47         1.8515   -6.8926    0.0654 H         1 <0>         0.4036
     91 H48         2.9636    1.7601   -1.6856 H         1 <0>         0.4114
     92 H49        -3.7253   -5.5902   -2.0803 H         1 <0>         0.3944
@<TRIPOS>BOND
     1    1    3 ar
     2    1    5 ar
     3    2    4 ar
     4    2    5 ar
     5    3    6 ar
     6    4    6 ar
     7    5   21 1
     8    6   40 1
     9    7   15 1
    10    7   34 am
    11    7   37 2
    12    8   27 1
    13    8   31 am
    14    8   38 2
    15    9   28 1
    16    9   35 am
    17    9   39 2
    18   10   32 1
    19   10   33 1
    20   10   36 1
    21   11   12 1
    22   11   16 1
    23   12   18 1
    24   13   15 1
    25   13   16 1
    26   14   17 1
    27   14   18 1
    28   15   31 1
    29   16   17 1
    30   17   31 1
    31   18   41 1
    32   19   29 1
    33   20   29 1
    34   21   28 1
    35   22   23 1
    36   22   25 1
    37   23   30 1
    38   24   27 1
    39   24   29 1
    40   25   36 1
    41   26   30 1
    42   26   42 1
    43   27   35 1
    44   28   43 1
    45   30   34 1
    46    1   44 1
    47    2   45 1
    48    3   46 1
    49    4   47 1
    50   11   48 1
    51   11   49 1
    52   12   50 1
    53   12   51 1
    54   13   52 1
    55   13   53 1
    56   14   54 1
    57   14   55 1
    58   15   56 1
    59   16   57 1
    60   17   58 1
    61   18   59 1
    62   19   60 1
    63   19   61 1
    64   19   62 1
    65   20   63 1
    66   20   64 1
    67   20   65 1
    68   21   66 1
    69   21   67 1
    70   22   68 1
    71   22   69 1
    72   23   70 1
    73   23   71 1
    74   24   72 1
    75   24   73 1
    76   25   74 1
    77   25   75 1
    78   26   76 1
    79   26   77 1
    80   27   78 1
    81   28   79 1
    82   29   80 1
    83   30   81 1
    84   32   82 1
    85   32   83 1
    86   33   84 1
    87   33   85 1
    88   34   86 1
    89   35   87 1
    90   36   88 1
    91   40   89 1
    92   41   90 1
    93   42   91 1
    94   43   92 1
@<TRIPOS>MOLECULE
1a2c_ligand_158
   92    94     0     0     0
SMALL
USER_CHARGES

mmff94s_NoEstat = 114.01
@<TRIPOS>ATOM
      1 C1         -4.9929   -5.5460   -4.3314 C.ar      1 <0>        -0.0708
      2 C2         -6.2813   -3.5051   -4.2233 C.ar      1 <0>        -0.0872
      3 C3         -6.0094   -6.1484   -5.0726 C.ar      1 <0>        -0.2241
      4 C4         -7.2979   -4.1076   -4.9645 C.ar      1 <0>        -0.1600
      5 C5         -5.1424   -4.2324   -3.9167 C.ar      1 <0>        -0.1356
      6 C6         -7.1619   -5.4292   -5.3891 C.ar      1 <0>         0.1290
      7 C7         -0.0512   -1.0561    0.2993 C.2       1 <0>         0.6664
      8 C8         -1.8469   -3.0457    2.1630 C.2       1 <0>         0.6651
      9 C9         -3.4040   -2.7670   -0.8258 C.2       1 <0>         0.6454
     10 C10        -3.3500    0.4457   -4.1011 C.cat     1 <0>         0.6349
     11 C11         2.5186   -3.1911    0.6823 C.3       1 <0>        -0.0642
     12 C12         2.4580   -4.6414    0.2376 C.3       1 <0>        -0.0747
     13 C13         1.4874   -1.4827    2.2418 C.3       1 <0>        -0.0873
     14 C14         0.4946   -5.0934    1.7133 C.3       1 <0>        -0.1371
     15 C15         0.0412   -1.4176    1.7503 C.3       1 <0>         0.0360
     16 C16         1.8865   -2.9529    2.0632 C.3       1 <0>        -0.0720
     17 C17         0.5665   -3.7001    2.3454 C.3       1 <0>         0.1201
     18 C18         1.0248   -5.1525    0.2868 C.3       1 <0>         0.1453
     19 C19        -5.7275   -1.2982    0.9287 C.3       1 <0>        -0.0968
     20 C20        -4.2097    0.6462    1.3473 C.3       1 <0>        -0.0986
     21 C21        -4.0416   -3.5799   -3.1149 C.3       1 <0>        -0.0191
     22 C22        -0.5396    2.6263   -2.8210 C.3       1 <0>        -0.1009
     23 C23        -0.4337    2.0012   -1.4250 C.3       1 <0>        -0.0942
     24 C24        -3.7699   -1.5150    2.5525 C.3       1 <0>        -0.0988
     25 C25        -1.1768    1.6547   -3.8119 C.3       1 <0>         0.1966
     26 C26         1.9058    0.9774   -1.7696 C.3       1 <0>         0.1128
     27 C27        -2.8325   -2.1090    1.5076 C.3       1 <0>         0.0786
     28 C28        -4.2317   -3.7794   -1.6077 C.3       1 <0>         0.0744
     29 C29        -4.8597   -0.5919    1.9712 C.3       1 <0>        -0.0678
     30 C30         0.4555    0.7445   -1.3388 C.3       1 <0>         0.1065
     31 N1         -0.4979   -2.7598    1.9615 N.am      1 <0>        -0.4315
     32 N2         -4.6259    0.1367   -3.6415 N.pl3     1 <0>        -0.8671
     33 N3         -2.9073   -0.1094   -5.2969 N.pl3     1 <0>        -0.8581
     34 N4          0.4455    0.1980   -0.0008 N.am      1 <0>        -0.5687
     35 N5         -3.5026   -2.9419    0.5527 N.am      1 <0>        -0.5746
     36 N6         -2.5084    1.3070   -3.3760 N.pl3     1 <0>        -0.7533
     37 O1         -0.5362   -1.8555   -0.4928 O.2       1 <0>        -0.5843
     38 O2         -2.2659   -3.9924    2.8322 O.2       1 <0>        -0.6812
     39 O3         -2.7407   -1.8909   -1.3761 O.2       1 <0>        -0.5788
     40 O4         -8.1531   -6.0167   -6.1138 O.3       1 <0>        -0.4938
     41 O5          0.9879   -6.5072   -0.1510 O.3       1 <0>        -0.6030
     42 O6          2.6391   -0.2366   -1.6731 O.3       1 <0>        -0.5860
     43 O7         -3.7895   -5.0823   -1.2550 O.3       1 <0>        -0.6021
     44 H1         -4.0988   -6.1142   -4.0895 H         1 <0>         0.1412
     45 H2         -6.3958   -2.4747   -3.8969 H         1 <0>         0.1451
     46 H3         -5.8975   -7.1781   -5.4005 H         1 <0>         0.1336
     47 H4         -8.1930   -3.5417   -5.2088 H         1 <0>         0.1567
     48 H5          3.5627   -2.8549    0.7003 H         1 <0>         0.0649
     49 H6          2.0259   -2.5829   -0.0837 H         1 <0>         0.0476
     50 H7          2.8567   -4.7427   -0.7790 H         1 <0>         0.0641
     51 H8          3.1032   -5.2618    0.8729 H         1 <0>         0.0484
     52 H9          2.1569   -0.7868    1.7257 H         1 <0>         0.0596
     53 H10         1.5124   -1.2395    3.3116 H         1 <0>         0.0757
     54 H11         1.0921   -5.7802    2.3299 H         1 <0>         0.0782
     55 H12        -0.5175   -5.5090    1.7393 H         1 <0>         0.0812
     56 H13        -0.5378   -0.6778    2.3126 H         1 <0>         0.0731
     57 H14         2.6304   -3.2407    2.8169 H         1 <0>         0.0511
     58 H15         0.4523   -3.8218    3.4319 H         1 <0>         0.0753
     59 H16         0.3841   -4.5700   -0.3844 H         1 <0>         0.0427
     60 H17        -6.4424   -0.5993    0.4810 H         1 <0>         0.0450
     61 H18        -6.3080   -2.1101    1.3767 H         1 <0>         0.0406
     62 H19        -5.1167   -1.7184    0.1225 H         1 <0>         0.0274
     63 H20        -3.5507    0.3732    0.5159 H         1 <0>         0.0476
     64 H21        -4.9709    1.3343    0.9644 H         1 <0>         0.0170
     65 H22        -3.6139    1.1889    2.0888 H         1 <0>         0.0477
     66 H23        -4.0106   -2.5080   -3.3518 H         1 <0>         0.0814
     67 H24        -3.0807   -3.9886   -3.4518 H         1 <0>         0.0685
     68 H25        -1.1414    3.5417   -2.7803 H         1 <0>         0.1016
     69 H26         0.4540    2.9154   -3.1840 H         1 <0>         0.0660
     70 H27        -1.4419    1.7433   -1.0734 H         1 <0>         0.0512
     71 H28        -0.0553    2.7561   -0.7237 H         1 <0>         0.0454
     72 H29        -3.1790   -0.9587    3.2928 H         1 <0>         0.0575
     73 H30        -4.2588   -2.3274    3.1083 H         1 <0>         0.0743
     74 H31        -0.5754    0.7428   -3.8900 H         1 <0>         0.0662
     75 H32        -1.2333    2.1046   -4.8084 H         1 <0>         0.0622
     76 H33         2.4001    1.7344   -1.1517 H         1 <0>         0.0321
     77 H34         1.9468    1.3120   -2.8125 H         1 <0>         0.0204
     78 H35        -2.2612   -1.3523    0.9714 H         1 <0>         0.0749
     79 H36        -5.2848   -3.6836   -1.3176 H         1 <0>         0.0719
     80 H37        -5.5109   -0.2494    2.7849 H         1 <0>         0.0609
     81 H38         0.0149    0.0012   -2.0158 H         1 <0>         0.1063
     82 H39        -4.9910    0.5172   -2.7724 H         1 <0>         0.4792
     83 H40        -5.2337   -0.4873   -4.1671 H         1 <0>         0.4819
     84 H41        -1.9802    0.0953   -5.6619 H         1 <0>         0.4802
     85 H42        -3.4997   -0.7341   -5.8386 H         1 <0>         0.4826
     86 H43         0.8216    0.7626    0.7549 H         1 <0>         0.3101
     87 H44        -4.0841   -3.7053    0.9020 H         1 <0>         0.3087
     88 H45        -2.8856    1.6887   -2.5001 H         1 <0>         0.4846
     89 H46        -8.1971   -6.9658   -5.9160 H         1 <0>         0.4194
     90 H47         1.8515   -6.8926    0.0654 H         1 <0>         0.4036
     91 H48         2.8853   -0.3414   -0.7399 H         1 <0>         0.4114
     92 H49        -3.7253   -5.5902   -2.0803 H         1 <0>         0.3944
@<TRIPOS>BOND
     1    1    3 ar
     2    1    5 ar
     3    2    4 ar
     4    2    5 ar
     5    3    6 ar
     6    4    6 ar
     7    5   21 1
     8    6   40 1
     9    7   15 1
    10    7   34 am
    11    7   37 2
    12    8   27 1
    13    8   31 am
    14    8   38 2
    15    9   28 1
    16    9   35 am
    17    9   39 2
    18   10   32 1
    19   10   33 1
    20   10   36 1
    21   11   12 1
    22   11   16 1
    23   12   18 1
    24   13   15 1
    25   13   16 1
    26   14   17 1
    27   14   18 1
    28   15   31 1
    29   16   17 1
    30   17   31 1
    31   18   41 1
    32   19   29 1
    33   20   29 1
    34   21   28 1
    35   22   23 1
    36   22   25 1
    37   23   30 1
    38   24   27 1
    39   24   29 1
    40   25   36 1
    41   26   30 1
    42   26   42 1
    43   27   35 1
    44   28   43 1
    45   30   34 1
    46    1   44 1
    47    2   45 1
    48    3   46 1
    49    4   47 1
    50   11   48 1
    51   11   49 1
    52   12   50 1
    53   12   51 1
    54   13   52 1
    55   13   53 1
    56   14   54 1
    57   14   55 1
    58   15   56 1
    59   16   57 1
    60   17   58 1
    61   18   59 1
    62   19   60 1
    63   19   61 1
    64   19   62 1
    65   20   63 1
    66   20   64 1
    67   20   65 1
    68   21   66 1
    69   21   67 1
    70   22   68 1
    71   22   69 1
    72   23   70 1
    73   23   71 1
    74   24   72 1
    75   24   73 1
    76   25   74 1
    77   25   75 1
    78   26   76 1
    79   26   77 1
    80   27   78 1
    81   28   79 1
    82   29   80 1
    83   30   81 1
    84   32   82 1
    85   32   83 1
    86   33   84 1
    87   33   85 1
    88   34   86 1
    89   35   87 1
    90   36   88 1
    91   40   89 1
    92   41   90 1
    93   42   91 1
    94   43   92 1
@<TRIPOS>MOLECULE
1a2c_ligand_159
   92    94     0     0     0
SMALL
USER_CHARGES

mmff94s_NoEstat = 114.04
@<TRIPOS>ATOM
      1 C1         -5.5012   -6.8146   -2.1504 C.ar      1 <0>        -0.0708
      2 C2         -3.4323   -6.5023   -3.3583 C.ar      1 <0>        -0.0872
      3 C3         -5.9204   -7.7389   -3.1072 C.ar      1 <0>        -0.2241
      4 C4         -3.8515   -7.4266   -4.3152 C.ar      1 <0>        -0.1600
      5 C5         -4.2629   -6.2087   -2.2887 C.ar      1 <0>        -0.1356
      6 C6         -5.0955   -8.0449   -4.1897 C.ar      1 <0>         0.1290
      7 C7         -0.0512   -1.0561    0.2993 C.2       1 <0>         0.6664
      8 C8         -1.8469   -3.0457    2.1630 C.2       1 <0>         0.6651
      9 C9         -3.4040   -2.7670   -0.8258 C.2       1 <0>         0.6454
     10 C10        -4.0116    5.1557   -0.3824 C.cat     1 <0>         0.6349
     11 C11         2.5186   -3.1911    0.6823 C.3       1 <0>        -0.0642
     12 C12         2.4580   -4.6414    0.2376 C.3       1 <0>        -0.0747
     13 C13         1.4874   -1.4827    2.2418 C.3       1 <0>        -0.0873
     14 C14         0.4946   -5.0934    1.7133 C.3       1 <0>        -0.1371
     15 C15         0.0412   -1.4176    1.7503 C.3       1 <0>         0.0360
     16 C16         1.8865   -2.9529    2.0632 C.3       1 <0>        -0.0720
     17 C17         0.5665   -3.7001    2.3454 C.3       1 <0>         0.1201
     18 C18         1.0248   -5.1525    0.2868 C.3       1 <0>         0.1453
     19 C19        -5.7275   -1.2982    0.9287 C.3       1 <0>        -0.0968
     20 C20        -4.2097    0.6462    1.3473 C.3       1 <0>        -0.0986
     21 C21        -3.8088   -5.2086   -1.2523 C.3       1 <0>        -0.0191
     22 C22        -1.2019    2.6554   -0.7648 C.3       1 <0>        -0.1009
     23 C23        -0.8794    1.4488   -1.6540 C.3       1 <0>        -0.0942
     24 C24        -3.7699   -1.5150    2.5525 C.3       1 <0>        -0.0988
     25 C25        -2.5638    3.2498   -1.1169 C.3       1 <0>         0.1966
     26 C26         1.6856    1.6412   -1.5001 C.3       1 <0>         0.1128
     27 C27        -2.8325   -2.1090    1.5076 C.3       1 <0>         0.0786
     28 C28        -4.2317   -3.7794   -1.6077 C.3       1 <0>         0.0744
     29 C29        -4.8597   -0.5919    1.9712 C.3       1 <0>        -0.0678
     30 C30         0.4555    0.7445   -1.3388 C.3       1 <0>         0.1065
     31 N1         -0.4979   -2.7598    1.9615 N.am      1 <0>        -0.4315
     32 N2         -4.2357    6.2444    0.4539 N.pl3     1 <0>        -0.8671
     33 N3         -4.9668    4.8273   -1.3383 N.pl3     1 <0>        -0.8581
     34 N4          0.4455    0.1980   -0.0008 N.am      1 <0>        -0.5687
     35 N5         -3.5026   -2.9419    0.5527 N.am      1 <0>        -0.5746
     36 N6         -2.8388    4.3887   -0.2734 N.pl3     1 <0>        -0.7533
     37 O1         -0.5362   -1.8555   -0.4928 O.2       1 <0>        -0.5843
     38 O2         -2.2659   -3.9924    2.8322 O.2       1 <0>        -0.6812
     39 O3         -2.7407   -1.8909   -1.3761 O.2       1 <0>        -0.5788
     40 O4         -5.5038   -8.9480   -5.1226 O.3       1 <0>        -0.4938
     41 O5          0.9879   -6.5072   -0.1510 O.3       1 <0>        -0.6030
     42 O6          2.8639    0.9021   -1.2063 O.3       1 <0>        -0.5860
     43 O7         -5.5970   -3.6017   -1.2587 O.3       1 <0>        -0.6021
     44 H1         -6.1508   -6.5826   -1.3107 H         1 <0>         0.1412
     45 H2         -2.4612   -6.0256   -3.4640 H         1 <0>         0.1451
     46 H3         -6.8903   -8.2172   -3.0039 H         1 <0>         0.1336
     47 H4         -3.2039   -7.6615   -5.1558 H         1 <0>         0.1567
     48 H5          3.5627   -2.8549    0.7003 H         1 <0>         0.0649
     49 H6          2.0259   -2.5829   -0.0837 H         1 <0>         0.0476
     50 H7          2.8567   -4.7427   -0.7790 H         1 <0>         0.0641
     51 H8          3.1032   -5.2618    0.8729 H         1 <0>         0.0484
     52 H9          2.1569   -0.7868    1.7257 H         1 <0>         0.0596
     53 H10         1.5124   -1.2395    3.3116 H         1 <0>         0.0757
     54 H11         1.0921   -5.7802    2.3299 H         1 <0>         0.0782
     55 H12        -0.5175   -5.5090    1.7393 H         1 <0>         0.0812
     56 H13        -0.5378   -0.6778    2.3126 H         1 <0>         0.0731
     57 H14         2.6304   -3.2407    2.8169 H         1 <0>         0.0511
     58 H15         0.4523   -3.8218    3.4319 H         1 <0>         0.0753
     59 H16         0.3841   -4.5700   -0.3844 H         1 <0>         0.0427
     60 H17        -6.4424   -0.5993    0.4810 H         1 <0>         0.0450
     61 H18        -6.3080   -2.1101    1.3767 H         1 <0>         0.0406
     62 H19        -5.1167   -1.7184    0.1225 H         1 <0>         0.0274
     63 H20        -3.5507    0.3732    0.5159 H         1 <0>         0.0476
     64 H21        -4.9709    1.3343    0.9644 H         1 <0>         0.0170
     65 H22        -3.6139    1.1889    2.0888 H         1 <0>         0.0477
     66 H23        -2.7165   -5.2642   -1.1527 H         1 <0>         0.0814
     67 H24        -4.2138   -5.5125   -0.2789 H         1 <0>         0.0685
     68 H25        -1.2036    2.3575    0.2901 H         1 <0>         0.1016
     69 H26        -0.4298    3.4262   -0.8760 H         1 <0>         0.0660
     70 H27        -0.8663    1.7736   -2.7033 H         1 <0>         0.0512
     71 H28        -1.6959    0.7195   -1.5759 H         1 <0>         0.0454
     72 H29        -3.1790   -0.9587    3.2928 H         1 <0>         0.0575
     73 H30        -4.2588   -2.3274    3.1083 H         1 <0>         0.0743
     74 H31        -3.3520    2.5022   -0.9783 H         1 <0>         0.0662
     75 H32        -2.5848    3.5678   -2.1644 H         1 <0>         0.0622
     76 H33         1.6463    2.5133   -0.8391 H         1 <0>         0.0321
     77 H34         1.7645    2.0016   -2.5321 H         1 <0>         0.0204
     78 H35        -2.2612   -1.3523    0.9714 H         1 <0>         0.0749
     79 H36        -4.1226   -3.5812   -2.6805 H         1 <0>         0.0719
     80 H37        -5.5109   -0.2494    2.7849 H         1 <0>         0.0609
     81 H38         0.5463   -0.0881   -2.0483 H         1 <0>         0.1063
     82 H39        -3.5669    6.5202    1.1680 H         1 <0>         0.4792
     83 H40        -5.0854    6.7983    0.3742 H         1 <0>         0.4819
     84 H41        -4.8350    4.0377   -1.9658 H         1 <0>         0.4802
     85 H42        -5.8222    5.3690   -1.4357 H         1 <0>         0.4826
     86 H43         0.8216    0.7626    0.7549 H         1 <0>         0.3101
     87 H44        -4.0841   -3.7053    0.9020 H         1 <0>         0.3087
     88 H45        -2.1673    4.6753    0.4493 H         1 <0>         0.4846
     89 H46        -6.4681   -8.9121   -5.2259 H         1 <0>         0.4194
     90 H47         1.8515   -6.8926    0.0654 H         1 <0>         0.4036
     91 H48         2.9483    0.8828   -0.2393 H         1 <0>         0.4114
     92 H49        -5.9717   -4.4883   -1.1291 H         1 <0>         0.3944
@<TRIPOS>BOND
     1    1    3 ar
     2    1    5 ar
     3    2    4 ar
     4    2    5 ar
     5    3    6 ar
     6    4    6 ar
     7    5   21 1
     8    6   40 1
     9    7   15 1
    10    7   34 am
    11    7   37 2
    12    8   27 1
    13    8   31 am
    14    8   38 2
    15    9   28 1
    16    9   35 am
    17    9   39 2
    18   10   32 1
    19   10   33 1
    20   10   36 1
    21   11   12 1
    22   11   16 1
    23   12   18 1
    24   13   15 1
    25   13   16 1
    26   14   17 1
    27   14   18 1
    28   15   31 1
    29   16   17 1
    30   17   31 1
    31   18   41 1
    32   19   29 1
    33   20   29 1
    34   21   28 1
    35   22   23 1
    36   22   25 1
    37   23   30 1
    38   24   27 1
    39   24   29 1
    40   25   36 1
    41   26   30 1
    42   26   42 1
    43   27   35 1
    44   28   43 1
    45   30   34 1
    46    1   44 1
    47    2   45 1
    48    3   46 1
    49    4   47 1
    50   11   48 1
    51   11   49 1
    52   12   50 1
    53   12   51 1
    54   13   52 1
    55   13   53 1
    56   14   54 1
    57   14   55 1
    58   15   56 1
    59   16   57 1
    60   17   58 1
    61   18   59 1
    62   19   60 1
    63   19   61 1
    64   19   62 1
    65   20   63 1
    66   20   64 1
    67   20   65 1
    68   21   66 1
    69   21   67 1
    70   22   68 1
    71   22   69 1
    72   23   70 1
    73   23   71 1
    74   24   72 1
    75   24   73 1
    76   25   74 1
    77   25   75 1
    78   26   76 1
    79   26   77 1
    80   27   78 1
    81   28   79 1
    82   29   80 1
    83   30   81 1
    84   32   82 1
    85   32   83 1
    86   33   84 1
    87   33   85 1
    88   34   86 1
    89   35   87 1
    90   36   88 1
    91   40   89 1
    92   41   90 1
    93   42   91 1
    94   43   92 1
@<TRIPOS>MOLECULE
1a2c_ligand_160
   92    94     0     0     0
SMALL
USER_CHARGES

mmff94s_NoEstat = 114.08
@<TRIPOS>ATOM
      1 C1         -5.5598   -5.0305   -4.3987 C.ar      1 <0>        -0.0708
      2 C2         -7.1116   -3.5596   -3.2737 C.ar      1 <0>        -0.0872
      3 C3         -6.6289   -5.7304   -4.9581 C.ar      1 <0>        -0.2241
      4 C4         -8.1806   -4.2595   -3.8331 C.ar      1 <0>        -0.1600
      5 C5         -5.8156   -3.9545   -3.5640 C.ar      1 <0>        -0.1356
      6 C6         -7.9393   -5.3449   -4.6753 C.ar      1 <0>         0.1290
      7 C7         -0.0512   -1.0561    0.2993 C.2       1 <0>         0.6664
      8 C8         -1.8469   -3.0457    2.1630 C.2       1 <0>         0.6651
      9 C9         -3.4040   -2.7670   -0.8258 C.2       1 <0>         0.6454
     10 C10        -3.3294    2.0808   -3.5565 C.cat     1 <0>         0.6349
     11 C11         2.5186   -3.1911    0.6823 C.3       1 <0>        -0.0642
     12 C12         2.4580   -4.6414    0.2376 C.3       1 <0>        -0.0747
     13 C13         1.4874   -1.4827    2.2418 C.3       1 <0>        -0.0873
     14 C14         0.4946   -5.0934    1.7133 C.3       1 <0>        -0.1371
     15 C15         0.0412   -1.4176    1.7503 C.3       1 <0>         0.0360
     16 C16         1.8865   -2.9529    2.0632 C.3       1 <0>        -0.0720
     17 C17         0.5665   -3.7001    2.3454 C.3       1 <0>         0.1201
     18 C18         1.0248   -5.1525    0.2868 C.3       1 <0>         0.1453
     19 C19        -5.7275   -1.2982    0.9287 C.3       1 <0>        -0.0968
     20 C20        -4.2097    0.6462    1.3473 C.3       1 <0>        -0.0986
     21 C21        -4.6582   -3.1963   -2.9589 C.3       1 <0>        -0.0191
     22 C22        -1.0374    2.7415   -0.6235 C.3       1 <0>        -0.1009
     23 C23         0.2513    2.2726   -1.3090 C.3       1 <0>        -0.0942
     24 C24        -3.7699   -1.5150    2.5525 C.3       1 <0>        -0.0988
     25 C25        -2.2684    2.1304   -1.2894 C.3       1 <0>         0.1966
     26 C26         1.7383    0.3016   -2.0469 C.3       1 <0>         0.1128
     27 C27        -2.8325   -2.1090    1.5076 C.3       1 <0>         0.0786
     28 C28        -4.2317   -3.7794   -1.6077 C.3       1 <0>         0.0744
     29 C29        -4.8597   -0.5919    1.9712 C.3       1 <0>        -0.0678
     30 C30         0.4555    0.7445   -1.3388 C.3       1 <0>         0.1065
     31 N1         -0.4979   -2.7598    1.9615 N.am      1 <0>        -0.4315
     32 N2         -3.3390    2.4766   -4.8899 N.pl3     1 <0>        -0.8671
     33 N3         -4.3382    1.2447   -3.0902 N.pl3     1 <0>        -0.8581
     34 N4          0.4455    0.1980   -0.0008 N.am      1 <0>        -0.5687
     35 N5         -3.5026   -2.9419    0.5527 N.am      1 <0>        -0.5746
     36 N6         -2.3186    2.5130   -2.6805 N.pl3     1 <0>        -0.7533
     37 O1         -0.5362   -1.8555   -0.4928 O.2       1 <0>        -0.5843
     38 O2         -2.2659   -3.9924    2.8322 O.2       1 <0>        -0.6812
     39 O3         -2.7407   -1.8909   -1.3761 O.2       1 <0>        -0.5788
     40 O4         -8.9824   -6.0269   -5.2225 O.3       1 <0>        -0.4938
     41 O5          0.9879   -6.5072   -0.1510 O.3       1 <0>        -0.6030
     42 O6          1.7296    0.7591   -3.3929 O.3       1 <0>        -0.5860
     43 O7         -3.4297   -4.9297   -1.8337 O.3       1 <0>        -0.6021
     44 H1         -4.5425   -5.3383   -4.6246 H         1 <0>         0.1412
     45 H2         -7.3091   -2.7149   -2.6188 H         1 <0>         0.1451
     46 H3         -6.4344   -6.5748   -5.6134 H         1 <0>         0.1336
     47 H4         -9.1994   -3.9538   -3.6097 H         1 <0>         0.1567
     48 H5          3.5627   -2.8549    0.7003 H         1 <0>         0.0649
     49 H6          2.0259   -2.5829   -0.0837 H         1 <0>         0.0476
     50 H7          2.8567   -4.7427   -0.7790 H         1 <0>         0.0641
     51 H8          3.1032   -5.2618    0.8729 H         1 <0>         0.0484
     52 H9          2.1569   -0.7868    1.7257 H         1 <0>         0.0596
     53 H10         1.5124   -1.2395    3.3116 H         1 <0>         0.0757
     54 H11         1.0921   -5.7802    2.3299 H         1 <0>         0.0782
     55 H12        -0.5175   -5.5090    1.7393 H         1 <0>         0.0812
     56 H13        -0.5378   -0.6778    2.3126 H         1 <0>         0.0731
     57 H14         2.6304   -3.2407    2.8169 H         1 <0>         0.0511
     58 H15         0.4523   -3.8218    3.4319 H         1 <0>         0.0753
     59 H16         0.3841   -4.5700   -0.3844 H         1 <0>         0.0427
     60 H17        -6.4424   -0.5993    0.4810 H         1 <0>         0.0450
     61 H18        -6.3080   -2.1101    1.3767 H         1 <0>         0.0406
     62 H19        -5.1167   -1.7184    0.1225 H         1 <0>         0.0274
     63 H20        -3.5507    0.3732    0.5159 H         1 <0>         0.0476
     64 H21        -4.9709    1.3343    0.9644 H         1 <0>         0.0170
     65 H22        -3.6139    1.1889    2.0888 H         1 <0>         0.0477
     66 H23        -4.9408   -2.1416   -2.8414 H         1 <0>         0.0814
     67 H24        -3.8274   -3.2052   -3.6757 H         1 <0>         0.0685
     68 H25        -1.0263    2.4588    0.4356 H         1 <0>         0.1016
     69 H26        -1.1105    3.8350   -0.6596 H         1 <0>         0.0660
     70 H27         1.1110    2.7323   -0.8028 H         1 <0>         0.0512
     71 H28         0.2685    2.6560   -2.3373 H         1 <0>         0.0454
     72 H29        -3.1790   -0.9587    3.2928 H         1 <0>         0.0575
     73 H30        -4.2588   -2.3274    3.1083 H         1 <0>         0.0743
     74 H31        -3.1804    2.4738   -0.7898 H         1 <0>         0.0662
     75 H32        -2.2399    1.0381   -1.2201 H         1 <0>         0.0622
     76 H33         1.8500   -0.7877   -2.0488 H         1 <0>         0.0321
     77 H34         2.6170    0.7313   -1.5524 H         1 <0>         0.0204
     78 H35        -2.2612   -1.3523    0.9714 H         1 <0>         0.0749
     79 H36        -5.0980   -4.0774   -1.0053 H         1 <0>         0.0719
     80 H37        -5.5109   -0.2494    2.7849 H         1 <0>         0.0609
     81 H38        -0.3978    0.3245   -1.8868 H         1 <0>         0.1063
     82 H39        -2.6237    3.0881   -5.2742 H         1 <0>         0.4792
     83 H40        -4.0716    2.1635   -5.5226 H         1 <0>         0.4819
     84 H41        -4.3615    0.9362   -2.1213 H         1 <0>         0.4802
     85 H42        -5.0788    0.9188   -3.7066 H         1 <0>         0.4826
     86 H43         0.8216    0.7626    0.7549 H         1 <0>         0.3101
     87 H44        -4.0841   -3.7053    0.9020 H         1 <0>         0.3087
     88 H45        -1.5986    3.1289   -3.0773 H         1 <0>         0.4846
     89 H46        -8.7515   -6.9631   -5.3324 H         1 <0>         0.4194
     90 H47         1.8515   -6.8926    0.0654 H         1 <0>         0.4036
     91 H48         1.1820    0.1356   -3.8968 H         1 <0>         0.4114
     92 H49        -3.5708   -5.1935   -2.7576 H         1 <0>         0.3944
@<TRIPOS>BOND
     1    1    3 ar
     2    1    5 ar
     3    2    4 ar
     4    2    5 ar
     5    3    6 ar
     6    4    6 ar
     7    5   21 1
     8    6   40 1
     9    7   15 1
    10    7   34 am
    11    7   37 2
    12    8   27 1
    13    8   31 am
    14    8   38 2
    15    9   28 1
    16    9   35 am
    17    9   39 2
    18   10   32 1
    19   10   33 1
    20   10   36 1
    21   11   12 1
    22   11   16 1
    23   12   18 1
    24   13   15 1
    25   13   16 1
    26   14   17 1
    27   14   18 1
    28   15   31 1
    29   16   17 1
    30   17   31 1
    31   18   41 1
    32   19   29 1
    33   20   29 1
    34   21   28 1
    35   22   23 1
    36   22   25 1
    37   23   30 1
    38   24   27 1
    39   24   29 1
    40   25   36 1
    41   26   30 1
    42   26   42 1
    43   27   35 1
    44   28   43 1
    45   30   34 1
    46    1   44 1
    47    2   45 1
    48    3   46 1
    49    4   47 1
    50   11   48 1
    51   11   49 1
    52   12   50 1
    53   12   51 1
    54   13   52 1
    55   13   53 1
    56   14   54 1
    57   14   55 1
    58   15   56 1
    59   16   57 1
    60   17   58 1
    61   18   59 1
    62   19   60 1
    63   19   61 1
    64   19   62 1
    65   20   63 1
    66   20   64 1
    67   20   65 1
    68   21   66 1
    69   21   67 1
    70   22   68 1
    71   22   69 1
    72   23   70 1
    73   23   71 1
    74   24   72 1
    75   24   73 1
    76   25   74 1
    77   25   75 1
    78   26   76 1
    79   26   77 1
    80   27   78 1
    81   28   79 1
    82   29   80 1
    83   30   81 1
    84   32   82 1
    85   32   83 1
    86   33   84 1
    87   33   85 1
    88   34   86 1
    89   35   87 1
    90   36   88 1
    91   40   89 1
    92   41   90 1
    93   42   91 1
    94   43   92 1
@<TRIPOS>MOLECULE
1a2c_ligand_161
   92    94     0     0     0
SMALL
USER_CHARGES

mmff94s_NoEstat = 114.11
@<TRIPOS>ATOM
      1 C1         -5.5598   -5.0305   -4.3987 C.ar      1 <0>        -0.0708
      2 C2         -7.1116   -3.5596   -3.2737 C.ar      1 <0>        -0.0872
      3 C3         -6.6289   -5.7304   -4.9581 C.ar      1 <0>        -0.2241
      4 C4         -8.1806   -4.2595   -3.8331 C.ar      1 <0>        -0.1600
      5 C5         -5.8156   -3.9545   -3.5640 C.ar      1 <0>        -0.1356
      6 C6         -7.9393   -5.3449   -4.6753 C.ar      1 <0>         0.1290
      7 C7         -0.0512   -1.0561    0.2993 C.2       1 <0>         0.6664
      8 C8         -1.8469   -3.0457    2.1630 C.2       1 <0>         0.6651
      9 C9         -3.4040   -2.7670   -0.8258 C.2       1 <0>         0.6454
     10 C10         0.1087    6.2839    0.0320 C.cat     1 <0>         0.6349
     11 C11         2.5186   -3.1911    0.6823 C.3       1 <0>        -0.0642
     12 C12         2.4580   -4.6414    0.2376 C.3       1 <0>        -0.0747
     13 C13         1.4874   -1.4827    2.2418 C.3       1 <0>        -0.0873
     14 C14         0.4946   -5.0934    1.7133 C.3       1 <0>        -0.1371
     15 C15         0.0412   -1.4176    1.7503 C.3       1 <0>         0.0360
     16 C16         1.8865   -2.9529    2.0632 C.3       1 <0>        -0.0720
     17 C17         0.5665   -3.7001    2.3454 C.3       1 <0>         0.1201
     18 C18         1.0248   -5.1525    0.2868 C.3       1 <0>         0.1453
     19 C19        -5.7275   -1.2982    0.9287 C.3       1 <0>        -0.0968
     20 C20        -4.2097    0.6462    1.3473 C.3       1 <0>        -0.0986
     21 C21        -4.6582   -3.1963   -2.9589 C.3       1 <0>        -0.0191
     22 C22        -1.0374    2.7415   -0.6235 C.3       1 <0>        -0.1009
     23 C23         0.2513    2.2726   -1.3090 C.3       1 <0>        -0.0942
     24 C24        -3.7699   -1.5150    2.5525 C.3       1 <0>        -0.0988
     25 C25        -1.1758    4.2607   -0.6924 C.3       1 <0>         0.1966
     26 C26         1.7383    0.3016   -2.0469 C.3       1 <0>         0.1128
     27 C27        -2.8325   -2.1090    1.5076 C.3       1 <0>         0.0786
     28 C28        -4.2317   -3.7794   -1.6077 C.3       1 <0>         0.0744
     29 C29        -4.8597   -0.5919    1.9712 C.3       1 <0>        -0.0678
     30 C30         0.4555    0.7445   -1.3388 C.3       1 <0>         0.1065
     31 N1         -0.4979   -2.7598    1.9615 N.am      1 <0>        -0.4315
     32 N2          1.2089    6.8461    0.6711 N.pl3     1 <0>        -0.8671
     33 N3         -0.8437    7.1205   -0.5399 N.pl3     1 <0>        -0.8581
     34 N4          0.4455    0.1980   -0.0008 N.am      1 <0>        -0.5687
     35 N5         -3.5026   -2.9419    0.5527 N.am      1 <0>        -0.5746
     36 N6         -0.0506    4.8893   -0.0421 N.pl3     1 <0>        -0.7533
     37 O1         -0.5362   -1.8555   -0.4928 O.2       1 <0>        -0.5843
     38 O2         -2.2659   -3.9924    2.8322 O.2       1 <0>        -0.6812
     39 O3         -2.7407   -1.8909   -1.3761 O.2       1 <0>        -0.5788
     40 O4         -8.9824   -6.0269   -5.2225 O.3       1 <0>        -0.4938
     41 O5          0.9879   -6.5072   -0.1510 O.3       1 <0>        -0.6030
     42 O6          1.7296    0.7591   -3.3929 O.3       1 <0>        -0.5860
     43 O7         -3.4297   -4.9297   -1.8337 O.3       1 <0>        -0.6021
     44 H1         -4.5425   -5.3383   -4.6246 H         1 <0>         0.1412
     45 H2         -7.3091   -2.7149   -2.6188 H         1 <0>         0.1451
     46 H3         -6.4344   -6.5748   -5.6134 H         1 <0>         0.1336
     47 H4         -9.1994   -3.9538   -3.6097 H         1 <0>         0.1567
     48 H5          3.5627   -2.8549    0.7003 H         1 <0>         0.0649
     49 H6          2.0259   -2.5829   -0.0837 H         1 <0>         0.0476
     50 H7          2.8567   -4.7427   -0.7790 H         1 <0>         0.0641
     51 H8          3.1032   -5.2618    0.8729 H         1 <0>         0.0484
     52 H9          2.1569   -0.7868    1.7257 H         1 <0>         0.0596
     53 H10         1.5124   -1.2395    3.3116 H         1 <0>         0.0757
     54 H11         1.0921   -5.7802    2.3299 H         1 <0>         0.0782
     55 H12        -0.5175   -5.5090    1.7393 H         1 <0>         0.0812
     56 H13        -0.5378   -0.6778    2.3126 H         1 <0>         0.0731
     57 H14         2.6304   -3.2407    2.8169 H         1 <0>         0.0511
     58 H15         0.4523   -3.8218    3.4319 H         1 <0>         0.0753
     59 H16         0.3841   -4.5700   -0.3844 H         1 <0>         0.0427
     60 H17        -6.4424   -0.5993    0.4810 H         1 <0>         0.0450
     61 H18        -6.3080   -2.1101    1.3767 H         1 <0>         0.0406
     62 H19        -5.1167   -1.7184    0.1225 H         1 <0>         0.0274
     63 H20        -3.5507    0.3732    0.5159 H         1 <0>         0.0476
     64 H21        -4.9709    1.3343    0.9644 H         1 <0>         0.0170
     65 H22        -3.6139    1.1889    2.0888 H         1 <0>         0.0477
     66 H23        -4.9408   -2.1416   -2.8414 H         1 <0>         0.0814
     67 H24        -3.8274   -3.2052   -3.6757 H         1 <0>         0.0685
     68 H25        -1.9092    2.2808   -1.1025 H         1 <0>         0.1016
     69 H26        -1.0467    2.4234    0.4259 H         1 <0>         0.0660
     70 H27         1.1110    2.7323   -0.8028 H         1 <0>         0.0512
     71 H28         0.2685    2.6560   -2.3373 H         1 <0>         0.0454
     72 H29        -3.1790   -0.9587    3.2928 H         1 <0>         0.0575
     73 H30        -4.2588   -2.3274    3.1083 H         1 <0>         0.0743
     74 H31        -2.0997    4.5809   -0.1994 H         1 <0>         0.0662
     75 H32        -1.2190    4.5954   -1.7340 H         1 <0>         0.0622
     76 H33         1.8500   -0.7877   -2.0488 H         1 <0>         0.0321
     77 H34         2.6170    0.7313   -1.5524 H         1 <0>         0.0204
     78 H35        -2.2612   -1.3523    0.9714 H         1 <0>         0.0749
     79 H36        -5.0980   -4.0774   -1.0053 H         1 <0>         0.0719
     80 H37        -5.5109   -0.2494    2.7849 H         1 <0>         0.0609
     81 H38        -0.3978    0.3245   -1.8868 H         1 <0>         0.1063
     82 H39         1.9287    6.2742    1.1048 H         1 <0>         0.4792
     83 H40         1.3225    7.8557    0.7245 H         1 <0>         0.4819
     84 H41        -1.6601    6.7429   -1.0146 H         1 <0>         0.4802
     85 H42        -0.7481    8.1323   -0.4992 H         1 <0>         0.4826
     86 H43         0.8216    0.7626    0.7549 H         1 <0>         0.3101
     87 H44        -4.0841   -3.7053    0.9020 H         1 <0>         0.3087
     88 H45         0.6822    4.3187    0.3968 H         1 <0>         0.4846
     89 H46        -8.7515   -6.9631   -5.3324 H         1 <0>         0.4194
     90 H47         1.8515   -6.8926    0.0654 H         1 <0>         0.4036
     91 H48         1.1820    0.1356   -3.8968 H         1 <0>         0.4114
     92 H49        -3.5708   -5.1935   -2.7576 H         1 <0>         0.3944
@<TRIPOS>BOND
     1    1    3 ar
     2    1    5 ar
     3    2    4 ar
     4    2    5 ar
     5    3    6 ar
     6    4    6 ar
     7    5   21 1
     8    6   40 1
     9    7   15 1
    10    7   34 am
    11    7   37 2
    12    8   27 1
    13    8   31 am
    14    8   38 2
    15    9   28 1
    16    9   35 am
    17    9   39 2
    18   10   32 1
    19   10   33 1
    20   10   36 1
    21   11   12 1
    22   11   16 1
    23   12   18 1
    24   13   15 1
    25   13   16 1
    26   14   17 1
    27   14   18 1
    28   15   31 1
    29   16   17 1
    30   17   31 1
    31   18   41 1
    32   19   29 1
    33   20   29 1
    34   21   28 1
    35   22   23 1
    36   22   25 1
    37   23   30 1
    38   24   27 1
    39   24   29 1
    40   25   36 1
    41   26   30 1
    42   26   42 1
    43   27   35 1
    44   28   43 1
    45   30   34 1
    46    1   44 1
    47    2   45 1
    48    3   46 1
    49    4   47 1
    50   11   48 1
    51   11   49 1
    52   12   50 1
    53   12   51 1
    54   13   52 1
    55   13   53 1
    56   14   54 1
    57   14   55 1
    58   15   56 1
    59   16   57 1
    60   17   58 1
    61   18   59 1
    62   19   60 1
    63   19   61 1
    64   19   62 1
    65   20   63 1
    66   20   64 1
    67   20   65 1
    68   21   66 1
    69   21   67 1
    70   22   68 1
    71   22   69 1
    72   23   70 1
    73   23   71 1
    74   24   72 1
    75   24   73 1
    76   25   74 1
    77   25   75 1
    78   26   76 1
    79   26   77 1
    80   27   78 1
    81   28   79 1
    82   29   80 1
    83   30   81 1
    84   32   82 1
    85   32   83 1
    86   33   84 1
    87   33   85 1
    88   34   86 1
    89   35   87 1
    90   36   88 1
    91   40   89 1
    92   41   90 1
    93   42   91 1
    94   43   92 1
@<TRIPOS>MOLECULE
1a2c_ligand_162
   92    94     0     0     0
SMALL
USER_CHARGES

mmff94s_NoEstat = 114.12
@<TRIPOS>ATOM
      1 C1         -9.0710   -3.1012    0.0189 C.ar      1 <0>        -0.0708
      2 C2         -7.9646   -4.4965    1.6517 C.ar      1 <0>        -0.0872
      3 C3        -10.1182   -4.0195   -0.0562 C.ar      1 <0>        -0.2241
      4 C4         -9.0118   -5.4148    1.5766 C.ar      1 <0>        -0.1600
      5 C5         -8.0083   -3.3520    0.8718 C.ar      1 <0>        -0.1356
      6 C6        -10.0887   -5.1764    0.7226 C.ar      1 <0>         0.1290
      7 C7         -0.0512   -1.0561    0.2993 C.2       1 <0>         0.6664
      8 C8         -1.8469   -3.0457    2.1630 C.2       1 <0>         0.6651
      9 C9         -4.4743   -1.9575    0.3333 C.2       1 <0>         0.6454
     10 C10        -3.3500    0.4457   -4.1011 C.cat     1 <0>         0.6349
     11 C11         2.5186   -3.1911    0.6823 C.3       1 <0>        -0.0642
     12 C12         2.4580   -4.6414    0.2376 C.3       1 <0>        -0.0747
     13 C13         1.4874   -1.4827    2.2418 C.3       1 <0>        -0.0873
     14 C14         0.4946   -5.0934    1.7133 C.3       1 <0>        -0.1371
     15 C15         0.0412   -1.4176    1.7503 C.3       1 <0>         0.0360
     16 C16         1.8865   -2.9529    2.0632 C.3       1 <0>        -0.0720
     17 C17         0.5665   -3.7001    2.3454 C.3       1 <0>         0.1201
     18 C18         1.0248   -5.1525    0.2868 C.3       1 <0>         0.1453
     19 C19        -5.3726   -0.5418    3.1302 C.3       1 <0>        -0.0968
     20 C20        -3.4397    1.0389    2.9738 C.3       1 <0>        -0.0986
     21 C21        -6.8749   -2.3574    0.9537 C.3       1 <0>        -0.0191
     22 C22        -0.5396    2.6263   -2.8210 C.3       1 <0>        -0.1009
     23 C23        -0.4337    2.0012   -1.4250 C.3       1 <0>        -0.0942
     24 C24        -2.9973   -1.3585    3.5851 C.3       1 <0>        -0.0988
     25 C25        -1.1768    1.6547   -3.8119 C.3       1 <0>         0.1966
     26 C26         1.9058    0.9774   -1.7696 C.3       1 <0>         0.1128
     27 C27        -2.7865   -1.8644    2.1628 C.3       1 <0>         0.0786
     28 C28        -5.7663   -2.6636   -0.0588 C.3       1 <0>         0.0744
     29 C29        -3.9969   -0.1898    3.6979 C.3       1 <0>        -0.0678
     30 C30         0.4555    0.7445   -1.3388 C.3       1 <0>         0.1065
     31 N1         -0.4979   -2.7598    1.9615 N.am      1 <0>        -0.4315
     32 N2         -4.6259    0.1367   -3.6415 N.pl3     1 <0>        -0.8671
     33 N3         -2.9073   -0.1094   -5.2969 N.pl3     1 <0>        -0.8581
     34 N4          0.4455    0.1980   -0.0008 N.am      1 <0>        -0.5687
     35 N5         -3.9799   -2.3853    1.5634 N.am      1 <0>        -0.5746
     36 N6         -2.5084    1.3070   -3.3760 N.pl3     1 <0>        -0.7533
     37 O1         -0.5362   -1.8555   -0.4928 O.2       1 <0>        -0.5843
     38 O2         -2.2998   -4.1783    2.3409 O.2       1 <0>        -0.6812
     39 O3         -3.9527   -1.0962   -0.3713 O.2       1 <0>        -0.5788
     40 O4        -11.1113   -6.0717    0.6505 O.3       1 <0>        -0.4938
     41 O5          0.9879   -6.5072   -0.1510 O.3       1 <0>        -0.6030
     42 O6          2.6391   -0.2366   -1.6731 O.3       1 <0>        -0.5860
     43 O7         -6.1634   -2.1870   -1.3365 O.3       1 <0>        -0.6021
     44 H1         -9.1028   -2.2030   -0.5918 H         1 <0>         0.1412
     45 H2         -7.1297   -4.6904    2.3201 H         1 <0>         0.1451
     46 H3        -10.9542   -3.8281   -0.7231 H         1 <0>         0.1336
     47 H4         -8.9835   -6.3139    2.1866 H         1 <0>         0.1567
     48 H5          3.5627   -2.8549    0.7003 H         1 <0>         0.0649
     49 H6          2.0259   -2.5829   -0.0837 H         1 <0>         0.0476
     50 H7          2.8567   -4.7427   -0.7790 H         1 <0>         0.0641
     51 H8          3.1032   -5.2618    0.8729 H         1 <0>         0.0484
     52 H9          2.1569   -0.7868    1.7257 H         1 <0>         0.0596
     53 H10         1.5124   -1.2395    3.3116 H         1 <0>         0.0757
     54 H11         1.0921   -5.7802    2.3299 H         1 <0>         0.0782
     55 H12        -0.5175   -5.5090    1.7393 H         1 <0>         0.0812
     56 H13        -0.5378   -0.6778    2.3126 H         1 <0>         0.0731
     57 H14         2.6304   -3.2407    2.8169 H         1 <0>         0.0511
     58 H15         0.4523   -3.8218    3.4319 H         1 <0>         0.0753
     59 H16         0.3841   -4.5700   -0.3844 H         1 <0>         0.0427
     60 H17        -6.0375    0.3284    3.1563 H         1 <0>         0.0450
     61 H18        -5.8542   -1.3328    3.7128 H         1 <0>         0.0406
     62 H19        -5.2988   -0.8789    2.0908 H         1 <0>         0.0274
     63 H20        -3.3028    0.8425    1.9049 H         1 <0>         0.0476
     64 H21        -4.1178    1.8926    3.0773 H         1 <0>         0.0170
     65 H22        -2.4708    1.3315    3.3922 H         1 <0>         0.0477
     66 H23        -6.4655   -2.3612    1.9727 H         1 <0>         0.0814
     67 H24        -7.2864   -1.3519    0.8004 H         1 <0>         0.0685
     68 H25        -1.1414    3.5417   -2.7803 H         1 <0>         0.1016
     69 H26         0.4540    2.9154   -3.1840 H         1 <0>         0.0660
     70 H27        -1.4419    1.7433   -1.0734 H         1 <0>         0.0512
     71 H28        -0.0553    2.7561   -0.7237 H         1 <0>         0.0454
     72 H29        -2.0302   -1.0518    4.0061 H         1 <0>         0.0575
     73 H30        -3.3514   -2.1846    4.2177 H         1 <0>         0.0743
     74 H31        -0.5754    0.7428   -3.8900 H         1 <0>         0.0662
     75 H32        -1.2333    2.1046   -4.8084 H         1 <0>         0.0622
     76 H33         2.4001    1.7344   -1.1517 H         1 <0>         0.0321
     77 H34         1.9468    1.3120   -2.8125 H         1 <0>         0.0204
     78 H35        -2.3647   -1.1082    1.5019 H         1 <0>         0.0749
     79 H36        -5.5777   -3.7409   -0.1372 H         1 <0>         0.0719
     80 H37        -4.1195    0.0762    4.7551 H         1 <0>         0.0609
     81 H38         0.0149    0.0012   -2.0158 H         1 <0>         0.1063
     82 H39        -4.9910    0.5172   -2.7724 H         1 <0>         0.4792
     83 H40        -5.2337   -0.4873   -4.1671 H         1 <0>         0.4819
     84 H41        -1.9802    0.0953   -5.6619 H         1 <0>         0.4802
     85 H42        -3.4997   -0.7341   -5.8386 H         1 <0>         0.4826
     86 H43         0.8216    0.7626    0.7549 H         1 <0>         0.3101
     87 H44        -4.4957   -3.1095    2.0656 H         1 <0>         0.3087
     88 H45        -2.8856    1.6887   -2.5001 H         1 <0>         0.4846
     89 H46       -11.4852   -6.0838   -0.2450 H         1 <0>         0.4194
     90 H47         1.8515   -6.8926    0.0654 H         1 <0>         0.4036
     91 H48         2.8853   -0.3414   -0.7399 H         1 <0>         0.4114
     92 H49        -7.1203   -2.0275   -1.2920 H         1 <0>         0.3944
@<TRIPOS>BOND
     1    1    3 ar
     2    1    5 ar
     3    2    4 ar
     4    2    5 ar
     5    3    6 ar
     6    4    6 ar
     7    5   21 1
     8    6   40 1
     9    7   15 1
    10    7   34 am
    11    7   37 2
    12    8   27 1
    13    8   31 am
    14    8   38 2
    15    9   28 1
    16    9   35 am
    17    9   39 2
    18   10   32 1
    19   10   33 1
    20   10   36 1
    21   11   12 1
    22   11   16 1
    23   12   18 1
    24   13   15 1
    25   13   16 1
    26   14   17 1
    27   14   18 1
    28   15   31 1
    29   16   17 1
    30   17   31 1
    31   18   41 1
    32   19   29 1
    33   20   29 1
    34   21   28 1
    35   22   23 1
    36   22   25 1
    37   23   30 1
    38   24   27 1
    39   24   29 1
    40   25   36 1
    41   26   30 1
    42   26   42 1
    43   27   35 1
    44   28   43 1
    45   30   34 1
    46    1   44 1
    47    2   45 1
    48    3   46 1
    49    4   47 1
    50   11   48 1
    51   11   49 1
    52   12   50 1
    53   12   51 1
    54   13   52 1
    55   13   53 1
    56   14   54 1
    57   14   55 1
    58   15   56 1
    59   16   57 1
    60   17   58 1
    61   18   59 1
    62   19   60 1
    63   19   61 1
    64   19   62 1
    65   20   63 1
    66   20   64 1
    67   20   65 1
    68   21   66 1
    69   21   67 1
    70   22   68 1
    71   22   69 1
    72   23   70 1
    73   23   71 1
    74   24   72 1
    75   24   73 1
    76   25   74 1
    77   25   75 1
    78   26   76 1
    79   26   77 1
    80   27   78 1
    81   28   79 1
    82   29   80 1
    83   30   81 1
    84   32   82 1
    85   32   83 1
    86   33   84 1
    87   33   85 1
    88   34   86 1
    89   35   87 1
    90   36   88 1
    91   40   89 1
    92   41   90 1
    93   42   91 1
    94   43   92 1
@<TRIPOS>MOLECULE
1a2c_ligand_163
   92    94     0     0     0
SMALL
USER_CHARGES

mmff94s_NoEstat = 114.25
@<TRIPOS>ATOM
      1 C1          9.1194    0.3522    5.3691 C.ar      1 <0>        -0.0708
      2 C2          7.5116    1.9345    4.5040 C.ar      1 <0>        -0.0872
      3 C3         10.1172    1.3238    5.2919 C.ar      1 <0>        -0.2241
      4 C4          8.5094    2.9061    4.4268 C.ar      1 <0>        -0.1600
      5 C5          7.8301    0.6705    4.9742 C.ar      1 <0>        -0.1356
      6 C6          9.8122    2.6008    4.8207 C.ar      1 <0>         0.1290
      7 C7          0.1755   -1.0766    0.1327 C.2       1 <0>         0.6664
      8 C8          2.3785   -0.9757    2.2764 C.2       1 <0>         0.6651
      9 C9          5.2968   -1.9145    3.7000 C.2       1 <0>         0.6454
     10 C10         0.2323    5.6394    2.4404 C.cat     1 <0>         0.6349
     11 C11         2.4521   -5.3069   -0.2561 C.3       1 <0>        -0.0642
     12 C12         1.2413   -5.9691    0.3982 C.3       1 <0>        -0.0747
     13 C13         1.5734   -2.9393   -0.7647 C.3       1 <0>        -0.0873
     14 C14         1.0938   -4.1277    2.1072 C.3       1 <0>        -0.1371
     15 C15         1.5650   -1.6216    0.0133 C.3       1 <0>         0.0360
     16 C16         2.5597   -3.8106    0.0203 C.3       1 <0>        -0.0720
     17 C17         2.2934   -3.4012    1.4755 C.3       1 <0>         0.1201
     18 C18         1.1411   -5.6363    1.8853 C.3       1 <0>         0.1453
     19 C19         3.8896   -0.8379    6.4377 C.3       1 <0>        -0.0968
     20 C20         2.2599   -2.7349    6.3694 C.3       1 <0>        -0.0986
     21 C21         6.7497   -0.3812    5.0585 C.3       1 <0>        -0.0191
     22 C22        -0.6430    2.4326    0.6399 C.3       1 <0>        -0.1009
     23 C23        -1.2979    2.0260   -0.6854 C.3       1 <0>        -0.0942
     24 C24         1.9925   -0.8489    4.7298 C.3       1 <0>        -0.0988
     25 C25        -0.5996    3.9518    0.7888 C.3       1 <0>         0.1966
     26 C26        -2.1127    0.1273   -2.2253 C.3       1 <0>         0.1128
     27 C27         2.8496   -1.4560    3.6253 C.3       1 <0>         0.0786
     28 C28         6.6400   -1.1984    3.7670 C.3       1 <0>         0.0744
     29 C29         2.4383   -1.2292    6.1562 C.3       1 <0>        -0.0678
     30 C30        -1.4370    0.5062   -0.9051 C.3       1 <0>         0.1065
     31 N1          2.0322   -1.9586    1.3590 N.am      1 <0>        -0.4315
     32 N2          0.8416    5.9360    3.6551 N.pl3     1 <0>        -0.8671
     33 N3         -0.1798    6.6813    1.6165 N.pl3     1 <0>        -0.8581
     34 N4         -0.1481   -0.1440   -0.8342 N.am      1 <0>        -0.5687
     35 N5          4.2184   -1.0331    3.6724 N.am      1 <0>        -0.5746
     36 N6          0.0297    4.3079    2.0383 N.pl3     1 <0>        -0.7533
     37 O1         -0.5534   -1.4727    1.0347 O.2       1 <0>        -0.5843
     38 O2          2.3230    0.2335    2.0409 O.2       1 <0>        -0.6812
     39 O3          5.2019   -3.1398    3.6875 O.2       1 <0>        -0.5788
     40 O4         10.7855    3.5494    4.7469 O.3       1 <0>        -0.4938
     41 O5          2.2611   -6.1715    2.5852 O.3       1 <0>        -0.6030
     42 O6         -2.2112   -1.2870   -2.3289 O.3       1 <0>        -0.5860
     43 O7          7.6677   -2.1787    3.7522 O.3       1 <0>        -0.6021
     44 H1          9.3666   -0.6398    5.7373 H         1 <0>         0.1412
     45 H2          6.4992    2.1814    4.1952 H         1 <0>         0.1451
     46 H3         11.1300    1.0799    5.6003 H         1 <0>         0.1336
     47 H4          8.2654    3.8995    4.0597 H         1 <0>         0.1567
     48 H5          3.3605   -5.7937    0.1218 H         1 <0>         0.0649
     49 H6          2.4319   -5.4897   -1.3370 H         1 <0>         0.0476
     50 H7          0.3241   -5.6545   -0.1129 H         1 <0>         0.0641
     51 H8          1.3294   -7.0545    0.2691 H         1 <0>         0.0484
     52 H9          0.5754   -3.3919   -0.8000 H         1 <0>         0.0596
     53 H10         1.8977   -2.7914   -1.8003 H         1 <0>         0.0757
     54 H11         1.0807   -3.9085    3.1823 H         1 <0>         0.0782
     55 H12         0.1523   -3.7376    1.7002 H         1 <0>         0.0812
     56 H13         2.2202   -0.8626   -0.4249 H         1 <0>         0.0731
     57 H14         3.5726   -3.4842   -0.2571 H         1 <0>         0.0511
     58 H15         3.1875   -3.5701    2.0864 H         1 <0>         0.0753
     59 H16         0.2435   -6.1003    2.3075 H         1 <0>         0.0427
     60 H17         4.2001   -1.1859    7.4289 H         1 <0>         0.0450
     61 H18         4.0203    0.2482    6.4220 H         1 <0>         0.0406
     62 H19         4.5693   -1.2752    5.6986 H         1 <0>         0.0274
     63 H20         2.8852   -3.3113    5.6789 H         1 <0>         0.0476
     64 H21         2.5335   -3.0185    7.3913 H         1 <0>         0.0170
     65 H22         1.2173   -3.0301    6.2104 H         1 <0>         0.0477
     66 H23         5.7901    0.1053    5.2788 H         1 <0>         0.0814
     67 H24         6.9627   -1.0264    5.9201 H         1 <0>         0.0685
     68 H25        -1.1995    2.0063    1.4826 H         1 <0>         0.1016
     69 H26         0.3766    2.0329    0.6979 H         1 <0>         0.0660
     70 H27        -0.7150    2.4492   -1.5148 H         1 <0>         0.0512
     71 H28        -2.2909    2.4892   -0.7497 H         1 <0>         0.0454
     72 H29         0.9469   -1.1516    4.5828 H         1 <0>         0.0575
     73 H30         2.0032    0.2464    4.6399 H         1 <0>         0.0743
     74 H31        -1.6136    4.3648    0.7674 H         1 <0>         0.0662
     75 H32        -0.0373    4.4024   -0.0355 H         1 <0>         0.0622
     76 H33        -1.5587    0.5035   -3.0917 H         1 <0>         0.0321
     77 H34        -3.1279    0.5382   -2.2680 H         1 <0>         0.0204
     78 H35         2.8203   -2.5449    3.6159 H         1 <0>         0.0749
     79 H36         6.7551   -0.5663    2.8785 H         1 <0>         0.0719
     80 H37         1.7968   -0.7138    6.8816 H         1 <0>         0.0609
     81 H38        -2.0581    0.1260   -0.0837 H         1 <0>         0.1063
     82 H39         1.1571    5.2076    4.2901 H         1 <0>         0.4792
     83 H40         0.9871    6.9003    3.9451 H         1 <0>         0.4819
     84 H41        -0.6286    6.5001    0.7219 H         1 <0>         0.4802
     85 H42        -0.0422    7.6522    1.8867 H         1 <0>         0.4826
     86 H43         0.5534    0.0962   -1.5282 H         1 <0>         0.3101
     87 H44         4.4137   -0.0309    3.6864 H         1 <0>         0.3087
     88 H45         0.3532    3.5780    2.6847 H         1 <0>         0.4846
     89 H46        11.6422    3.1378    4.5506 H         1 <0>         0.4194
     90 H47         2.7873   -5.4145    2.8873 H         1 <0>         0.4036
     91 H48        -1.3448   -1.6067   -2.6281 H         1 <0>         0.4114
     92 H49         8.3173   -1.9150    4.4243 H         1 <0>         0.3944
@<TRIPOS>BOND
     1    1    3 ar
     2    1    5 ar
     3    2    4 ar
     4    2    5 ar
     5    3    6 ar
     6    4    6 ar
     7    5   21 1
     8    6   40 1
     9    7   15 1
    10    7   34 am
    11    7   37 2
    12    8   27 1
    13    8   31 am
    14    8   38 2
    15    9   28 1
    16    9   35 am
    17    9   39 2
    18   10   32 1
    19   10   33 1
    20   10   36 1
    21   11   12 1
    22   11   16 1
    23   12   18 1
    24   13   15 1
    25   13   16 1
    26   14   17 1
    27   14   18 1
    28   15   31 1
    29   16   17 1
    30   17   31 1
    31   18   41 1
    32   19   29 1
    33   20   29 1
    34   21   28 1
    35   22   23 1
    36   22   25 1
    37   23   30 1
    38   24   27 1
    39   24   29 1
    40   25   36 1
    41   26   30 1
    42   26   42 1
    43   27   35 1
    44   28   43 1
    45   30   34 1
    46    1   44 1
    47    2   45 1
    48    3   46 1
    49    4   47 1
    50   11   48 1
    51   11   49 1
    52   12   50 1
    53   12   51 1
    54   13   52 1
    55   13   53 1
    56   14   54 1
    57   14   55 1
    58   15   56 1
    59   16   57 1
    60   17   58 1
    61   18   59 1
    62   19   60 1
    63   19   61 1
    64   19   62 1
    65   20   63 1
    66   20   64 1
    67   20   65 1
    68   21   66 1
    69   21   67 1
    70   22   68 1
    71   22   69 1
    72   23   70 1
    73   23   71 1
    74   24   72 1
    75   24   73 1
    76   25   74 1
    77   25   75 1
    78   26   76 1
    79   26   77 1
    80   27   78 1
    81   28   79 1
    82   29   80 1
    83   30   81 1
    84   32   82 1
    85   32   83 1
    86   33   84 1
    87   33   85 1
    88   34   86 1
    89   35   87 1
    90   36   88 1
    91   40   89 1
    92   41   90 1
    93   42   91 1
    94   43   92 1
@<TRIPOS>MOLECULE
1a2c_ligand_164
   92    94     0     0     0
SMALL
USER_CHARGES

mmff94s_NoEstat = 114.36
@<TRIPOS>ATOM
      1 C1         -9.0847   -1.3044   -2.6485 C.ar      1 <0>        -0.0708
      2 C2         -8.5472   -3.2829   -1.3702 C.ar      1 <0>        -0.0872
      3 C3        -10.1778   -1.9642   -3.2101 C.ar      1 <0>        -0.2241
      4 C4         -9.6404   -3.9427   -1.9318 C.ar      1 <0>        -0.1600
      5 C5         -8.2841   -1.9726   -1.7361 C.ar      1 <0>        -0.1356
      6 C6        -10.4557   -3.2834   -2.8518 C.ar      1 <0>         0.1290
      7 C7         -0.1674   -1.0853   -0.0424 C.2       1 <0>         0.6664
      8 C8         -2.5997   -3.1326    0.7250 C.2       1 <0>         0.6651
      9 C9         -4.5933   -1.1215   -1.1219 C.2       1 <0>         0.6454
     10 C10         1.7841    7.1778   -1.8320 C.cat     1 <0>         0.6349
     11 C11         2.0445   -3.7524    0.2047 C.3       1 <0>        -0.0642
     12 C12         2.1951   -5.1517   -0.3975 C.3       1 <0>        -0.0747
     13 C13         0.7864   -2.3272    1.9103 C.3       1 <0>        -0.0873
     14 C14        -0.3466   -4.9962   -0.4055 C.3       1 <0>        -0.1371
     15 C15        -0.4770   -1.8334    1.2187 C.3       1 <0>         0.0360
     16 C16         1.0305   -3.7327    1.3503 C.3       1 <0>        -0.0720
     17 C17        -0.3661   -4.2312    0.9284 C.3       1 <0>         0.1201
     18 C18         0.8694   -5.9135   -0.5141 C.3       1 <0>         0.1453
     19 C19        -5.9631   -0.4404    1.7581 C.3       1 <0>        -0.0968
     20 C20        -3.8887    0.7550    2.4841 C.3       1 <0>        -0.0986
     21 C21        -7.1011   -1.2580   -1.1276 C.3       1 <0>        -0.0191
     22 C22         1.3330    3.4344   -1.5576 C.3       1 <0>        -0.1009
     23 C23         0.9718    2.4190   -0.4671 C.3       1 <0>        -0.0942
     24 C24        -3.8619   -1.7555    2.3678 C.3       1 <0>        -0.0988
     25 C25         1.3683    4.8545   -0.9971 C.3       1 <0>         0.1966
     26 C26         2.3035    0.4585   -1.4784 C.3       1 <0>         0.1128
     27 C27        -3.3800   -1.8574    0.9254 C.3       1 <0>         0.0786
     28 C28        -5.8260   -1.4472   -1.9560 C.3       1 <0>         0.0744
     29 C29        -4.7285   -0.5135    2.6578 C.3       1 <0>        -0.0678
     30 C30         0.9627    0.9465   -0.9241 C.3       1 <0>         0.1065
     31 N1         -1.2224   -3.0398    0.8850 N.am      1 <0>        -0.4315
     32 N2          2.1098    8.0431   -2.8712 N.pl3     1 <0>        -0.8671
     33 N3          1.5386    7.7001   -0.5667 N.pl3     1 <0>        -0.8581
     34 N4          0.5562    0.0753    0.1551 N.am      1 <0>        -0.5687
     35 N5         -4.4491   -1.9660   -0.0233 N.am      1 <0>        -0.5746
     36 N6          1.7005    5.7909   -2.0444 N.pl3     1 <0>        -0.7533
     37 O1         -0.5544   -1.5275   -1.1177 O.2       1 <0>        -0.5843
     38 O2         -3.1933   -4.1752    0.4418 O.2       1 <0>        -0.6812
     39 O3         -3.8320   -0.1982   -1.4017 O.2       1 <0>        -0.5788
     40 O4        -11.5233   -3.9266   -3.3985 O.3       1 <0>        -0.4938
     41 O5          0.7872   -6.8901    0.5248 O.3       1 <0>        -0.6030
     42 O6          3.3063    0.5601   -0.4760 O.3       1 <0>        -0.5860
     43 O7         -5.8598   -0.5599   -3.0646 O.3       1 <0>        -0.6021
     44 H1         -8.8761   -0.2769   -2.9339 H         1 <0>         0.1412
     45 H2         -7.9176   -3.8044   -0.6540 H         1 <0>         0.1451
     46 H3        -10.8091   -1.4452   -3.9259 H         1 <0>         0.1336
     47 H4         -9.8523   -4.9701   -1.6479 H         1 <0>         0.1567
     48 H5          3.0220   -3.4003    0.5555 H         1 <0>         0.0649
     49 H6          1.7363   -3.0584   -0.5866 H         1 <0>         0.0476
     50 H7          2.6388   -5.0399   -1.3944 H         1 <0>         0.0641
     51 H8          2.9088   -5.7297    0.2024 H         1 <0>         0.0484
     52 H9          1.6439   -1.6583    1.7836 H         1 <0>         0.0596
     53 H10         0.5887   -2.4119    2.9867 H         1 <0>         0.0757
     54 H11        -1.2632   -5.5927   -0.4872 H         1 <0>         0.0782
     55 H12        -0.3526   -4.2949   -1.2498 H         1 <0>         0.0812
     56 H13        -1.0651   -1.1731    1.8629 H         1 <0>         0.0731
     57 H14         1.4245   -4.3763    2.1480 H         1 <0>         0.0511
     58 H15        -0.7725   -4.8823    1.7135 H         1 <0>         0.0753
     59 H16         0.8433   -6.4624   -1.4612 H         1 <0>         0.0427
     60 H17        -6.5181    0.4873    1.9352 H         1 <0>         0.0450
     61 H18        -6.6497   -1.2692    1.9547 H         1 <0>         0.0406
     62 H19        -5.6850   -0.4702    0.6992 H         1 <0>         0.0274
     63 H20        -3.5277    0.8553    1.4548 H         1 <0>         0.0476
     64 H21        -4.4764    1.6472    2.7254 H         1 <0>         0.0170
     65 H22        -3.0188    0.7404    3.1493 H         1 <0>         0.0477
     66 H23        -6.9441   -1.6275   -0.1054 H         1 <0>         0.0814
     67 H24        -7.3548   -0.1954   -1.0258 H         1 <0>         0.0685
     68 H25         2.3127    3.1949   -1.9871 H         1 <0>         0.1016
     69 H26         0.6063    3.3858   -2.3774 H         1 <0>         0.0660
     70 H27        -0.0191    2.6679   -0.0634 H         1 <0>         0.0512
     71 H28         1.6731    2.5296    0.3700 H         1 <0>         0.0454
     72 H29        -2.9928   -1.7573    3.0396 H         1 <0>         0.0575
     73 H30        -4.4407   -2.6540    2.6237 H         1 <0>         0.0743
     74 H31         2.1145    4.9295   -0.1990 H         1 <0>         0.0662
     75 H32         0.3959    5.1239   -0.5723 H         1 <0>         0.0622
     76 H33         2.6215    1.0387   -2.3510 H         1 <0>         0.0321
     77 H34         2.2342   -0.5935   -1.7781 H         1 <0>         0.0204
     78 H35        -2.7366   -1.0282    0.6336 H         1 <0>         0.0749
     79 H36        -5.7413   -2.4715   -2.3380 H         1 <0>         0.0719
     80 H37        -5.0656   -0.5471    3.7011 H         1 <0>         0.0609
     81 H38         0.2159    0.8710   -1.7251 H         1 <0>         0.1063
     82 H39         2.2991    7.7066   -3.8115 H         1 <0>         0.4792
     83 H40         2.1705    9.0468   -2.7159 H         1 <0>         0.4819
     84 H41         1.2981    7.0960    0.2155 H         1 <0>         0.4802
     85 H42         1.5923    8.7005   -0.3905 H         1 <0>         0.4826
     86 H43         0.8147    0.3282    1.1041 H         1 <0>         0.3101
     87 H44        -5.1428   -2.7027    0.1135 H         1 <0>         0.3087
     88 H45         1.8913    5.4593   -2.9977 H         1 <0>         0.4846
     89 H46       -11.6766   -3.6139   -4.3044 H         1 <0>         0.4194
     90 H47         1.3049   -6.5470    1.2701 H         1 <0>         0.4036
     91 H48         3.5968    1.4864   -0.4636 H         1 <0>         0.4114
     92 H49        -6.7778   -0.2556   -3.1531 H         1 <0>         0.3944
@<TRIPOS>BOND
     1    1    3 ar
     2    1    5 ar
     3    2    4 ar
     4    2    5 ar
     5    3    6 ar
     6    4    6 ar
     7    5   21 1
     8    6   40 1
     9    7   15 1
    10    7   34 am
    11    7   37 2
    12    8   27 1
    13    8   31 am
    14    8   38 2
    15    9   28 1
    16    9   35 am
    17    9   39 2
    18   10   32 1
    19   10   33 1
    20   10   36 1
    21   11   12 1
    22   11   16 1
    23   12   18 1
    24   13   15 1
    25   13   16 1
    26   14   17 1
    27   14   18 1
    28   15   31 1
    29   16   17 1
    30   17   31 1
    31   18   41 1
    32   19   29 1
    33   20   29 1
    34   21   28 1
    35   22   23 1
    36   22   25 1
    37   23   30 1
    38   24   27 1
    39   24   29 1
    40   25   36 1
    41   26   30 1
    42   26   42 1
    43   27   35 1
    44   28   43 1
    45   30   34 1
    46    1   44 1
    47    2   45 1
    48    3   46 1
    49    4   47 1
    50   11   48 1
    51   11   49 1
    52   12   50 1
    53   12   51 1
    54   13   52 1
    55   13   53 1
    56   14   54 1
    57   14   55 1
    58   15   56 1
    59   16   57 1
    60   17   58 1
    61   18   59 1
    62   19   60 1
    63   19   61 1
    64   19   62 1
    65   20   63 1
    66   20   64 1
    67   20   65 1
    68   21   66 1
    69   21   67 1
    70   22   68 1
    71   22   69 1
    72   23   70 1
    73   23   71 1
    74   24   72 1
    75   24   73 1
    76   25   74 1
    77   25   75 1
    78   26   76 1
    79   26   77 1
    80   27   78 1
    81   28   79 1
    82   29   80 1
    83   30   81 1
    84   32   82 1
    85   32   83 1
    86   33   84 1
    87   33   85 1
    88   34   86 1
    89   35   87 1
    90   36   88 1
    91   40   89 1
    92   41   90 1
    93   42   91 1
    94   43   92 1
@<TRIPOS>MOLECULE
1a2c_ligand_165
   92    94     0     0     0
SMALL
USER_CHARGES

mmff94s_NoEstat = 114.37
@<TRIPOS>ATOM
      1 C1         -9.0710   -3.1012    0.0189 C.ar      1 <0>        -0.0708
      2 C2         -7.9646   -4.4965    1.6517 C.ar      1 <0>        -0.0872
      3 C3        -10.1182   -4.0195   -0.0562 C.ar      1 <0>        -0.2241
      4 C4         -9.0118   -5.4148    1.5766 C.ar      1 <0>        -0.1600
      5 C5         -8.0083   -3.3520    0.8718 C.ar      1 <0>        -0.1356
      6 C6        -10.0887   -5.1764    0.7226 C.ar      1 <0>         0.1290
      7 C7         -0.0512   -1.0561    0.2993 C.2       1 <0>         0.6664
      8 C8         -1.8469   -3.0457    2.1630 C.2       1 <0>         0.6651
      9 C9         -4.4743   -1.9575    0.3333 C.2       1 <0>         0.6454
     10 C10        -0.9406    0.6782   -6.6110 C.cat     1 <0>         0.6349
     11 C11         2.5186   -3.1911    0.6823 C.3       1 <0>        -0.0642
     12 C12         2.4580   -4.6414    0.2376 C.3       1 <0>        -0.0747
     13 C13         1.4874   -1.4827    2.2418 C.3       1 <0>        -0.0873
     14 C14         0.4946   -5.0934    1.7133 C.3       1 <0>        -0.1371
     15 C15         0.0412   -1.4176    1.7503 C.3       1 <0>         0.0360
     16 C16         1.8865   -2.9529    2.0632 C.3       1 <0>        -0.0720
     17 C17         0.5665   -3.7001    2.3454 C.3       1 <0>         0.1201
     18 C18         1.0248   -5.1525    0.2868 C.3       1 <0>         0.1453
     19 C19        -5.3726   -0.5418    3.1302 C.3       1 <0>        -0.0968
     20 C20        -3.4397    1.0389    2.9738 C.3       1 <0>        -0.0986
     21 C21        -6.8749   -2.3574    0.9537 C.3       1 <0>        -0.0191
     22 C22        -0.9951    2.0137   -3.0747 C.3       1 <0>        -0.1009
     23 C23        -0.8794    1.4488   -1.6540 C.3       1 <0>        -0.0942
     24 C24        -2.9973   -1.3585    3.5851 C.3       1 <0>        -0.0988
     25 C25        -0.9093    0.9015   -4.1176 C.3       1 <0>         0.1966
     26 C26         1.6856    1.6412   -1.5001 C.3       1 <0>         0.1128
     27 C27        -2.7865   -1.8644    2.1628 C.3       1 <0>         0.0786
     28 C28        -5.7663   -2.6636   -0.0588 C.3       1 <0>         0.0744
     29 C29        -3.9969   -0.1898    3.6979 C.3       1 <0>        -0.0678
     30 C30         0.4555    0.7445   -1.3388 C.3       1 <0>         0.1065
     31 N1         -0.4979   -2.7598    1.9615 N.am      1 <0>        -0.4315
     32 N2         -1.0455    1.2596   -7.8703 N.pl3     1 <0>        -0.8671
     33 N3         -0.7637   -0.6976   -6.5120 N.pl3     1 <0>        -0.8581
     34 N4          0.4455    0.1980   -0.0008 N.am      1 <0>        -0.5687
     35 N5         -3.9799   -2.3853    1.5634 N.am      1 <0>        -0.5746
     36 N6         -1.0107    1.4600   -5.4449 N.pl3     1 <0>        -0.7533
     37 O1         -0.5362   -1.8555   -0.4928 O.2       1 <0>        -0.5843
     38 O2         -2.2998   -4.1783    2.3409 O.2       1 <0>        -0.6812
     39 O3         -3.9527   -1.0962   -0.3713 O.2       1 <0>        -0.5788
     40 O4        -11.1113   -6.0717    0.6505 O.3       1 <0>        -0.4938
     41 O5          0.9879   -6.5072   -0.1510 O.3       1 <0>        -0.6030
     42 O6          2.8639    0.9021   -1.2063 O.3       1 <0>        -0.5860
     43 O7         -6.1634   -2.1870   -1.3365 O.3       1 <0>        -0.6021
     44 H1         -9.1028   -2.2030   -0.5918 H         1 <0>         0.1412
     45 H2         -7.1297   -4.6904    2.3201 H         1 <0>         0.1451
     46 H3        -10.9542   -3.8281   -0.7231 H         1 <0>         0.1336
     47 H4         -8.9835   -6.3139    2.1866 H         1 <0>         0.1567
     48 H5          3.5627   -2.8549    0.7003 H         1 <0>         0.0649
     49 H6          2.0259   -2.5829   -0.0837 H         1 <0>         0.0476
     50 H7          2.8567   -4.7427   -0.7790 H         1 <0>         0.0641
     51 H8          3.1032   -5.2618    0.8729 H         1 <0>         0.0484
     52 H9          2.1569   -0.7868    1.7257 H         1 <0>         0.0596
     53 H10         1.5124   -1.2395    3.3116 H         1 <0>         0.0757
     54 H11         1.0921   -5.7802    2.3299 H         1 <0>         0.0782
     55 H12        -0.5175   -5.5090    1.7393 H         1 <0>         0.0812
     56 H13        -0.5378   -0.6778    2.3126 H         1 <0>         0.0731
     57 H14         2.6304   -3.2407    2.8169 H         1 <0>         0.0511
     58 H15         0.4523   -3.8218    3.4319 H         1 <0>         0.0753
     59 H16         0.3841   -4.5700   -0.3844 H         1 <0>         0.0427
     60 H17        -6.0375    0.3284    3.1563 H         1 <0>         0.0450
     61 H18        -5.8542   -1.3328    3.7128 H         1 <0>         0.0406
     62 H19        -5.2988   -0.8789    2.0908 H         1 <0>         0.0274
     63 H20        -3.3028    0.8425    1.9049 H         1 <0>         0.0476
     64 H21        -4.1178    1.8926    3.0773 H         1 <0>         0.0170
     65 H22        -2.4708    1.3315    3.3922 H         1 <0>         0.0477
     66 H23        -6.4655   -2.3612    1.9727 H         1 <0>         0.0814
     67 H24        -7.2864   -1.3519    0.8004 H         1 <0>         0.0685
     68 H25        -1.9473    2.5434   -3.1941 H         1 <0>         0.1016
     69 H26        -0.1993    2.7456   -3.2583 H         1 <0>         0.0660
     70 H27        -1.7000    0.7382   -1.4859 H         1 <0>         0.0512
     71 H28        -1.0340    2.2618   -0.9330 H         1 <0>         0.0454
     72 H29        -2.0302   -1.0518    4.0061 H         1 <0>         0.0575
     73 H30        -3.3514   -2.1846    4.2177 H         1 <0>         0.0743
     74 H31        -1.7187    0.1787   -3.9697 H         1 <0>         0.0662
     75 H32         0.0401    0.3636   -4.0280 H         1 <0>         0.0622
     76 H33         1.6463    2.5133   -0.8391 H         1 <0>         0.0321
     77 H34         1.7645    2.0016   -2.5321 H         1 <0>         0.0204
     78 H35        -2.3647   -1.1082    1.5019 H         1 <0>         0.0749
     79 H36        -5.5777   -3.7409   -0.1372 H         1 <0>         0.0719
     80 H37        -4.1195    0.0762    4.7551 H         1 <0>         0.0609
     81 H38         0.5463   -0.0881   -2.0483 H         1 <0>         0.1063
     82 H39        -1.1773    2.2602   -7.9911 H         1 <0>         0.4792
     83 H40        -0.9951    0.6924   -8.7134 H         1 <0>         0.4819
     84 H41        -0.6834   -1.1551   -5.6072 H         1 <0>         0.4802
     85 H42        -0.7090   -1.2825   -7.3424 H         1 <0>         0.4826
     86 H43         0.8216    0.7626    0.7549 H         1 <0>         0.3101
     87 H44        -4.4957   -3.1095    2.0656 H         1 <0>         0.3087
     88 H45        -1.1420    2.4704   -5.5758 H         1 <0>         0.4846
     89 H46       -11.4852   -6.0838   -0.2450 H         1 <0>         0.4194
     90 H47         1.8515   -6.8926    0.0654 H         1 <0>         0.4036
     91 H48         2.9483    0.8828   -0.2393 H         1 <0>         0.4114
     92 H49        -7.1203   -2.0275   -1.2920 H         1 <0>         0.3944
@<TRIPOS>BOND
     1    1    3 ar
     2    1    5 ar
     3    2    4 ar
     4    2    5 ar
     5    3    6 ar
     6    4    6 ar
     7    5   21 1
     8    6   40 1
     9    7   15 1
    10    7   34 am
    11    7   37 2
    12    8   27 1
    13    8   31 am
    14    8   38 2
    15    9   28 1
    16    9   35 am
    17    9   39 2
    18   10   32 1
    19   10   33 1
    20   10   36 1
    21   11   12 1
    22   11   16 1
    23   12   18 1
    24   13   15 1
    25   13   16 1
    26   14   17 1
    27   14   18 1
    28   15   31 1
    29   16   17 1
    30   17   31 1
    31   18   41 1
    32   19   29 1
    33   20   29 1
    34   21   28 1
    35   22   23 1
    36   22   25 1
    37   23   30 1
    38   24   27 1
    39   24   29 1
    40   25   36 1
    41   26   30 1
    42   26   42 1
    43   27   35 1
    44   28   43 1
    45   30   34 1
    46    1   44 1
    47    2   45 1
    48    3   46 1
    49    4   47 1
    50   11   48 1
    51   11   49 1
    52   12   50 1
    53   12   51 1
    54   13   52 1
    55   13   53 1
    56   14   54 1
    57   14   55 1
    58   15   56 1
    59   16   57 1
    60   17   58 1
    61   18   59 1
    62   19   60 1
    63   19   61 1
    64   19   62 1
    65   20   63 1
    66   20   64 1
    67   20   65 1
    68   21   66 1
    69   21   67 1
    70   22   68 1
    71   22   69 1
    72   23   70 1
    73   23   71 1
    74   24   72 1
    75   24   73 1
    76   25   74 1
    77   25   75 1
    78   26   76 1
    79   26   77 1
    80   27   78 1
    81   28   79 1
    82   29   80 1
    83   30   81 1
    84   32   82 1
    85   32   83 1
    86   33   84 1
    87   33   85 1
    88   34   86 1
    89   35   87 1
    90   36   88 1
    91   40   89 1
    92   41   90 1
    93   42   91 1
    94   43   92 1
@<TRIPOS>MOLECULE
1a2c_ligand_166
   92    94     0     0     0
SMALL
USER_CHARGES

mmff94s_NoEstat = 114.41
@<TRIPOS>ATOM
      1 C1          9.1194    0.3522    5.3691 C.ar      1 <0>        -0.0708
      2 C2          7.5116    1.9345    4.5040 C.ar      1 <0>        -0.0872
      3 C3         10.1172    1.3238    5.2919 C.ar      1 <0>        -0.2241
      4 C4          8.5094    2.9061    4.4268 C.ar      1 <0>        -0.1600
      5 C5          7.8301    0.6705    4.9742 C.ar      1 <0>        -0.1356
      6 C6          9.8122    2.6008    4.8207 C.ar      1 <0>         0.1290
      7 C7          0.1755   -1.0766    0.1327 C.2       1 <0>         0.6664
      8 C8          2.3785   -0.9757    2.2764 C.2       1 <0>         0.6651
      9 C9          5.2968   -1.9145    3.7000 C.2       1 <0>         0.6454
     10 C10         0.0177    5.1861   -4.1496 C.cat     1 <0>         0.6349
     11 C11         2.4521   -5.3069   -0.2561 C.3       1 <0>        -0.0642
     12 C12         1.2413   -5.9691    0.3982 C.3       1 <0>        -0.0747
     13 C13         1.5734   -2.9393   -0.7647 C.3       1 <0>        -0.0873
     14 C14         1.0938   -4.1277    2.1072 C.3       1 <0>        -0.1371
     15 C15         1.5650   -1.6216    0.0133 C.3       1 <0>         0.0360
     16 C16         2.5597   -3.8106    0.0203 C.3       1 <0>        -0.0720
     17 C17         2.2934   -3.4012    1.4755 C.3       1 <0>         0.1201
     18 C18         1.1411   -5.6363    1.8853 C.3       1 <0>         0.1453
     19 C19         3.8896   -0.8379    6.4377 C.3       1 <0>        -0.0968
     20 C20         2.2599   -2.7349    6.3694 C.3       1 <0>        -0.0986
     21 C21         6.7497   -0.3812    5.0585 C.3       1 <0>        -0.0191
     22 C22        -0.8155    2.0502   -2.2095 C.3       1 <0>        -0.1009
     23 C23        -1.7941    0.8762   -2.3301 C.3       1 <0>        -0.0942
     24 C24         1.9925   -0.8489    4.7298 C.3       1 <0>        -0.0988
     25 C25        -1.0015    3.0414   -3.3563 C.3       1 <0>         0.1966
     26 C26        -2.7214   -1.3050   -1.3187 C.3       1 <0>         0.1128
     27 C27         2.8496   -1.4560    3.6253 C.3       1 <0>         0.0786
     28 C28         6.6400   -1.1984    3.7670 C.3       1 <0>         0.0744
     29 C29         2.4383   -1.2292    6.1562 C.3       1 <0>        -0.0678
     30 C30        -1.7203   -0.1547   -1.1858 C.3       1 <0>         0.1065
     31 N1          2.0322   -1.9586    1.3590 N.am      1 <0>        -0.4315
     32 N2          0.9368    6.2166   -3.9817 N.pl3     1 <0>        -0.8671
     33 N3         -0.8308    5.2073   -5.2513 N.pl3     1 <0>        -0.8581
     34 N4         -0.3878   -0.7030   -1.0725 N.am      1 <0>        -0.5687
     35 N5          4.2184   -1.0331    3.6724 N.am      1 <0>        -0.5746
     36 N6         -0.0630    4.1305   -3.2250 N.pl3     1 <0>        -0.7533
     37 O1         -0.3509   -1.0007    1.2367 O.2       1 <0>        -0.5843
     38 O2          2.3230    0.2335    2.0409 O.2       1 <0>        -0.6812
     39 O3          5.2019   -3.1398    3.6875 O.2       1 <0>        -0.5788
     40 O4         10.7855    3.5494    4.7469 O.3       1 <0>        -0.4938
     41 O5          2.2611   -6.1715    2.5852 O.3       1 <0>        -0.6030
     42 O6         -2.4752   -2.0231   -2.5206 O.3       1 <0>        -0.5860
     43 O7          7.6677   -2.1787    3.7522 O.3       1 <0>        -0.6021
     44 H1          9.3666   -0.6398    5.7373 H         1 <0>         0.1412
     45 H2          6.4992    2.1814    4.1952 H         1 <0>         0.1451
     46 H3         11.1300    1.0799    5.6003 H         1 <0>         0.1336
     47 H4          8.2654    3.8995    4.0597 H         1 <0>         0.1567
     48 H5          3.3605   -5.7937    0.1218 H         1 <0>         0.0649
     49 H6          2.4319   -5.4897   -1.3370 H         1 <0>         0.0476
     50 H7          0.3241   -5.6545   -0.1129 H         1 <0>         0.0641
     51 H8          1.3294   -7.0545    0.2691 H         1 <0>         0.0484
     52 H9          0.5754   -3.3919   -0.8000 H         1 <0>         0.0596
     53 H10         1.8977   -2.7914   -1.8003 H         1 <0>         0.0757
     54 H11         1.0807   -3.9085    3.1823 H         1 <0>         0.0782
     55 H12         0.1523   -3.7376    1.7002 H         1 <0>         0.0812
     56 H13         2.2202   -0.8626   -0.4249 H         1 <0>         0.0731
     57 H14         3.5726   -3.4842   -0.2571 H         1 <0>         0.0511
     58 H15         3.1875   -3.5701    2.0864 H         1 <0>         0.0753
     59 H16         0.2435   -6.1003    2.3075 H         1 <0>         0.0427
     60 H17         4.2001   -1.1859    7.4289 H         1 <0>         0.0450
     61 H18         4.0203    0.2482    6.4220 H         1 <0>         0.0406
     62 H19         4.5693   -1.2752    5.6986 H         1 <0>         0.0274
     63 H20         2.8852   -3.3113    5.6789 H         1 <0>         0.0476
     64 H21         2.5335   -3.0185    7.3913 H         1 <0>         0.0170
     65 H22         1.2173   -3.0301    6.2104 H         1 <0>         0.0477
     66 H23         5.7901    0.1053    5.2788 H         1 <0>         0.0814
     67 H24         6.9627   -1.0264    5.9201 H         1 <0>         0.0685
     68 H25        -0.9672    2.5721   -1.2575 H         1 <0>         0.1016
     69 H26         0.2183    1.6845   -2.2100 H         1 <0>         0.0660
     70 H27        -1.6130    0.3584   -3.2819 H         1 <0>         0.0512
     71 H28        -2.8171    1.2691   -2.3922 H         1 <0>         0.0454
     72 H29         0.9469   -1.1516    4.5828 H         1 <0>         0.0575
     73 H30         2.0032    0.2464    4.6399 H         1 <0>         0.0743
     74 H31        -2.0203    3.4431   -3.3499 H         1 <0>         0.0662
     75 H32        -0.8427    2.5473   -4.3203 H         1 <0>         0.0622
     76 H33        -3.7565   -0.9478   -1.3308 H         1 <0>         0.0321
     77 H34        -2.6144   -2.0048   -0.4820 H         1 <0>         0.0204
     78 H35         2.8203   -2.5449    3.6159 H         1 <0>         0.0749
     79 H36         6.7551   -0.5663    2.8785 H         1 <0>         0.0719
     80 H37         1.7968   -0.7138    6.8816 H         1 <0>         0.0609
     81 H38        -1.9472    0.3883   -0.2591 H         1 <0>         0.1063
     82 H39         1.5752    6.2439   -3.1911 H         1 <0>         0.4792
     83 H40         0.9937    6.9803   -4.6514 H         1 <0>         0.4819
     84 H41        -1.5145    4.4701   -5.4045 H         1 <0>         0.4802
     85 H42        -0.7890    5.9606   -5.9336 H         1 <0>         0.4826
     86 H43         0.1607   -0.8193   -1.9192 H         1 <0>         0.3101
     87 H44         4.4137   -0.0309    3.6864 H         1 <0>         0.3087
     88 H45         0.5869    4.1646   -2.4302 H         1 <0>         0.4846
     89 H46        11.6422    3.1378    4.5506 H         1 <0>         0.4194
     90 H47         2.7873   -5.4145    2.8873 H         1 <0>         0.4036
     91 H48        -2.8906   -1.5183   -3.2383 H         1 <0>         0.4114
     92 H49         8.3173   -1.9150    4.4243 H         1 <0>         0.3944
@<TRIPOS>BOND
     1    1    3 ar
     2    1    5 ar
     3    2    4 ar
     4    2    5 ar
     5    3    6 ar
     6    4    6 ar
     7    5   21 1
     8    6   40 1
     9    7   15 1
    10    7   34 am
    11    7   37 2
    12    8   27 1
    13    8   31 am
    14    8   38 2
    15    9   28 1
    16    9   35 am
    17    9   39 2
    18   10   32 1
    19   10   33 1
    20   10   36 1
    21   11   12 1
    22   11   16 1
    23   12   18 1
    24   13   15 1
    25   13   16 1
    26   14   17 1
    27   14   18 1
    28   15   31 1
    29   16   17 1
    30   17   31 1
    31   18   41 1
    32   19   29 1
    33   20   29 1
    34   21   28 1
    35   22   23 1
    36   22   25 1
    37   23   30 1
    38   24   27 1
    39   24   29 1
    40   25   36 1
    41   26   30 1
    42   26   42 1
    43   27   35 1
    44   28   43 1
    45   30   34 1
    46    1   44 1
    47    2   45 1
    48    3   46 1
    49    4   47 1
    50   11   48 1
    51   11   49 1
    52   12   50 1
    53   12   51 1
    54   13   52 1
    55   13   53 1
    56   14   54 1
    57   14   55 1
    58   15   56 1
    59   16   57 1
    60   17   58 1
    61   18   59 1
    62   19   60 1
    63   19   61 1
    64   19   62 1
    65   20   63 1
    66   20   64 1
    67   20   65 1
    68   21   66 1
    69   21   67 1
    70   22   68 1
    71   22   69 1
    72   23   70 1
    73   23   71 1
    74   24   72 1
    75   24   73 1
    76   25   74 1
    77   25   75 1
    78   26   76 1
    79   26   77 1
    80   27   78 1
    81   28   79 1
    82   29   80 1
    83   30   81 1
    84   32   82 1
    85   32   83 1
    86   33   84 1
    87   33   85 1
    88   34   86 1
    89   35   87 1
    90   36   88 1
    91   40   89 1
    92   41   90 1
    93   42   91 1
    94   43   92 1
@<TRIPOS>MOLECULE
1a2c_ligand_167
   92    94     0     0     0
SMALL
USER_CHARGES

mmff94s_NoEstat = 114.41
@<TRIPOS>ATOM
      1 C1         -7.1365   -2.8677   -2.9678 C.ar      1 <0>        -0.0708
      2 C2         -5.7068   -0.9564   -2.5937 C.ar      1 <0>        -0.0872
      3 C3         -8.2603   -2.0492   -2.8547 C.ar      1 <0>        -0.2241
      4 C4         -6.8306   -0.1379   -2.4807 C.ar      1 <0>        -0.1600
      5 C5         -5.8748   -2.3103   -2.8358 C.ar      1 <0>        -0.1356
      6 C6         -8.1073   -0.6843   -2.6112 C.ar      1 <0>         0.1290
      7 C7         -0.0512   -1.0561    0.2993 C.2       1 <0>         0.6664
      8 C8         -1.8469   -3.0457    2.1630 C.2       1 <0>         0.6651
      9 C9         -3.4040   -2.7670   -0.8258 C.2       1 <0>         0.6454
     10 C10         0.1087    6.2839    0.0320 C.cat     1 <0>         0.6349
     11 C11         2.5186   -3.1911    0.6823 C.3       1 <0>        -0.0642
     12 C12         2.4580   -4.6414    0.2376 C.3       1 <0>        -0.0747
     13 C13         1.4874   -1.4827    2.2418 C.3       1 <0>        -0.0873
     14 C14         0.4946   -5.0934    1.7133 C.3       1 <0>        -0.1371
     15 C15         0.0412   -1.4176    1.7503 C.3       1 <0>         0.0360
     16 C16         1.8865   -2.9529    2.0632 C.3       1 <0>        -0.0720
     17 C17         0.5665   -3.7001    2.3454 C.3       1 <0>         0.1201
     18 C18         1.0248   -5.1525    0.2868 C.3       1 <0>         0.1453
     19 C19        -5.7275   -1.2982    0.9287 C.3       1 <0>        -0.0968
     20 C20        -4.2097    0.6462    1.3473 C.3       1 <0>        -0.0986
     21 C21        -4.6582   -3.1963   -2.9589 C.3       1 <0>        -0.0191
     22 C22        -1.0374    2.7415   -0.6235 C.3       1 <0>        -0.1009
     23 C23         0.2513    2.2726   -1.3090 C.3       1 <0>        -0.0942
     24 C24        -3.7699   -1.5150    2.5525 C.3       1 <0>        -0.0988
     25 C25        -1.1758    4.2607   -0.6924 C.3       1 <0>         0.1966
     26 C26         1.7383    0.3016   -2.0469 C.3       1 <0>         0.1128
     27 C27        -2.8325   -2.1090    1.5076 C.3       1 <0>         0.0786
     28 C28        -4.2317   -3.7794   -1.6077 C.3       1 <0>         0.0744
     29 C29        -4.8597   -0.5919    1.9712 C.3       1 <0>        -0.0678
     30 C30         0.4555    0.7445   -1.3388 C.3       1 <0>         0.1065
     31 N1         -0.4979   -2.7598    1.9615 N.am      1 <0>        -0.4315
     32 N2          1.2089    6.8461    0.6711 N.pl3     1 <0>        -0.8671
     33 N3         -0.8437    7.1205   -0.5399 N.pl3     1 <0>        -0.8581
     34 N4          0.4455    0.1980   -0.0008 N.am      1 <0>        -0.5687
     35 N5         -3.5026   -2.9419    0.5527 N.am      1 <0>        -0.5746
     36 N6         -0.0506    4.8893   -0.0421 N.pl3     1 <0>        -0.7533
     37 O1         -0.5362   -1.8555   -0.4928 O.2       1 <0>        -0.5843
     38 O2         -2.2659   -3.9924    2.8322 O.2       1 <0>        -0.6812
     39 O3         -2.7407   -1.8909   -1.3761 O.2       1 <0>        -0.5788
     40 O4         -9.2039    0.1147   -2.5025 O.3       1 <0>        -0.4938
     41 O5          0.9879   -6.5072   -0.1510 O.3       1 <0>        -0.6030
     42 O6          1.7296    0.7591   -3.3929 O.3       1 <0>        -0.5860
     43 O7         -3.4297   -4.9297   -1.8337 O.3       1 <0>        -0.6021
     44 H1         -7.2656   -3.9298   -3.1574 H         1 <0>         0.1412
     45 H2         -4.7158   -0.5219   -2.4909 H         1 <0>         0.1451
     46 H3         -9.2520   -2.4807   -2.9575 H         1 <0>         0.1336
     47 H4         -6.7049    0.9250   -2.2918 H         1 <0>         0.1567
     48 H5          3.5627   -2.8549    0.7003 H         1 <0>         0.0649
     49 H6          2.0259   -2.5829   -0.0837 H         1 <0>         0.0476
     50 H7          2.8567   -4.7427   -0.7790 H         1 <0>         0.0641
     51 H8          3.1032   -5.2618    0.8729 H         1 <0>         0.0484
     52 H9          2.1569   -0.7868    1.7257 H         1 <0>         0.0596
     53 H10         1.5124   -1.2395    3.3116 H         1 <0>         0.0757
     54 H11         1.0921   -5.7802    2.3299 H         1 <0>         0.0782
     55 H12        -0.5175   -5.5090    1.7393 H         1 <0>         0.0812
     56 H13        -0.5378   -0.6778    2.3126 H         1 <0>         0.0731
     57 H14         2.6304   -3.2407    2.8169 H         1 <0>         0.0511
     58 H15         0.4523   -3.8218    3.4319 H         1 <0>         0.0753
     59 H16         0.3841   -4.5700   -0.3844 H         1 <0>         0.0427
     60 H17        -6.4424   -0.5993    0.4810 H         1 <0>         0.0450
     61 H18        -6.3080   -2.1101    1.3767 H         1 <0>         0.0406
     62 H19        -5.1167   -1.7184    0.1225 H         1 <0>         0.0274
     63 H20        -3.5507    0.3732    0.5159 H         1 <0>         0.0476
     64 H21        -4.9709    1.3343    0.9644 H         1 <0>         0.0170
     65 H22        -3.6139    1.1889    2.0888 H         1 <0>         0.0477
     66 H23        -3.8338   -2.6171   -3.3960 H         1 <0>         0.0814
     67 H24        -4.8817   -3.9909   -3.6819 H         1 <0>         0.0685
     68 H25        -1.9092    2.2808   -1.1025 H         1 <0>         0.1016
     69 H26        -1.0467    2.4234    0.4259 H         1 <0>         0.0660
     70 H27         1.1110    2.7323   -0.8028 H         1 <0>         0.0512
     71 H28         0.2685    2.6560   -2.3373 H         1 <0>         0.0454
     72 H29        -3.1790   -0.9587    3.2928 H         1 <0>         0.0575
     73 H30        -4.2588   -2.3274    3.1083 H         1 <0>         0.0743
     74 H31        -2.0997    4.5809   -0.1994 H         1 <0>         0.0662
     75 H32        -1.2190    4.5954   -1.7340 H         1 <0>         0.0622
     76 H33         1.8500   -0.7877   -2.0488 H         1 <0>         0.0321
     77 H34         2.6170    0.7313   -1.5524 H         1 <0>         0.0204
     78 H35        -2.2612   -1.3523    0.9714 H         1 <0>         0.0749
     79 H36        -5.0980   -4.0774   -1.0053 H         1 <0>         0.0719
     80 H37        -5.5109   -0.2494    2.7849 H         1 <0>         0.0609
     81 H38        -0.3978    0.3245   -1.8868 H         1 <0>         0.1063
     82 H39         1.9287    6.2742    1.1048 H         1 <0>         0.4792
     83 H40         1.3225    7.8557    0.7245 H         1 <0>         0.4819
     84 H41        -1.6601    6.7429   -1.0146 H         1 <0>         0.4802
     85 H42        -0.7481    8.1323   -0.4992 H         1 <0>         0.4826
     86 H43         0.8216    0.7626    0.7549 H         1 <0>         0.3101
     87 H44        -4.0841   -3.7053    0.9020 H         1 <0>         0.3087
     88 H45         0.6822    4.3187    0.3968 H         1 <0>         0.4846
     89 H46        -9.9437   -0.3803   -2.1156 H         1 <0>         0.4194
     90 H47         1.8515   -6.8926    0.0654 H         1 <0>         0.4036
     91 H48         1.1820    0.1356   -3.8968 H         1 <0>         0.4114
     92 H49        -3.5708   -5.1935   -2.7576 H         1 <0>         0.3944
@<TRIPOS>BOND
     1    1    3 ar
     2    1    5 ar
     3    2    4 ar
     4    2    5 ar
     5    3    6 ar
     6    4    6 ar
     7    5   21 1
     8    6   40 1
     9    7   15 1
    10    7   34 am
    11    7   37 2
    12    8   27 1
    13    8   31 am
    14    8   38 2
    15    9   28 1
    16    9   35 am
    17    9   39 2
    18   10   32 1
    19   10   33 1
    20   10   36 1
    21   11   12 1
    22   11   16 1
    23   12   18 1
    24   13   15 1
    25   13   16 1
    26   14   17 1
    27   14   18 1
    28   15   31 1
    29   16   17 1
    30   17   31 1
    31   18   41 1
    32   19   29 1
    33   20   29 1
    34   21   28 1
    35   22   23 1
    36   22   25 1
    37   23   30 1
    38   24   27 1
    39   24   29 1
    40   25   36 1
    41   26   30 1
    42   26   42 1
    43   27   35 1
    44   28   43 1
    45   30   34 1
    46    1   44 1
    47    2   45 1
    48    3   46 1
    49    4   47 1
    50   11   48 1
    51   11   49 1
    52   12   50 1
    53   12   51 1
    54   13   52 1
    55   13   53 1
    56   14   54 1
    57   14   55 1
    58   15   56 1
    59   16   57 1
    60   17   58 1
    61   18   59 1
    62   19   60 1
    63   19   61 1
    64   19   62 1
    65   20   63 1
    66   20   64 1
    67   20   65 1
    68   21   66 1
    69   21   67 1
    70   22   68 1
    71   22   69 1
    72   23   70 1
    73   23   71 1
    74   24   72 1
    75   24   73 1
    76   25   74 1
    77   25   75 1
    78   26   76 1
    79   26   77 1
    80   27   78 1
    81   28   79 1
    82   29   80 1
    83   30   81 1
    84   32   82 1
    85   32   83 1
    86   33   84 1
    87   33   85 1
    88   34   86 1
    89   35   87 1
    90   36   88 1
    91   40   89 1
    92   41   90 1
    93   42   91 1
    94   43   92 1
@<TRIPOS>MOLECULE
1a2c_ligand_168
   92    94     0     0     0
SMALL
USER_CHARGES

mmff94s_NoEstat = 114.51
@<TRIPOS>ATOM
      1 C1         -9.0710   -3.1012    0.0189 C.ar      1 <0>        -0.0708
      2 C2         -7.9646   -4.4965    1.6517 C.ar      1 <0>        -0.0872
      3 C3        -10.1182   -4.0195   -0.0562 C.ar      1 <0>        -0.2241
      4 C4         -9.0118   -5.4148    1.5766 C.ar      1 <0>        -0.1600
      5 C5         -8.0083   -3.3520    0.8718 C.ar      1 <0>        -0.1356
      6 C6        -10.0887   -5.1764    0.7226 C.ar      1 <0>         0.1290
      7 C7         -0.0512   -1.0561    0.2993 C.2       1 <0>         0.6664
      8 C8         -1.8469   -3.0457    2.1630 C.2       1 <0>         0.6651
      9 C9         -4.4743   -1.9575    0.3333 C.2       1 <0>         0.6454
     10 C10        -1.9621    5.1299   -2.6331 C.cat     1 <0>         0.6349
     11 C11         2.5186   -3.1911    0.6823 C.3       1 <0>        -0.0642
     12 C12         2.4580   -4.6414    0.2376 C.3       1 <0>        -0.0747
     13 C13         1.4874   -1.4827    2.2418 C.3       1 <0>        -0.0873
     14 C14         0.4946   -5.0934    1.7133 C.3       1 <0>        -0.1371
     15 C15         0.0412   -1.4176    1.7503 C.3       1 <0>         0.0360
     16 C16         1.8865   -2.9529    2.0632 C.3       1 <0>        -0.0720
     17 C17         0.5665   -3.7001    2.3454 C.3       1 <0>         0.1201
     18 C18         1.0248   -5.1525    0.2868 C.3       1 <0>         0.1453
     19 C19        -5.3726   -0.5418    3.1302 C.3       1 <0>        -0.0968
     20 C20        -3.4397    1.0389    2.9738 C.3       1 <0>        -0.0986
     21 C21        -6.8749   -2.3574    0.9537 C.3       1 <0>        -0.0191
     22 C22        -0.9951    2.0137   -3.0747 C.3       1 <0>        -0.1009
     23 C23        -0.8794    1.4488   -1.6540 C.3       1 <0>        -0.0942
     24 C24        -2.9973   -1.3585    3.5851 C.3       1 <0>        -0.0988
     25 C25        -2.3255    2.7368   -3.2725 C.3       1 <0>         0.1966
     26 C26         1.6856    1.6412   -1.5001 C.3       1 <0>         0.1128
     27 C27        -2.7865   -1.8644    2.1628 C.3       1 <0>         0.0786
     28 C28        -5.7663   -2.6636   -0.0588 C.3       1 <0>         0.0744
     29 C29        -3.9969   -0.1898    3.6979 C.3       1 <0>        -0.0678
     30 C30         0.4555    0.7445   -1.3388 C.3       1 <0>         0.1065
     31 N1         -0.4979   -2.7598    1.9615 N.am      1 <0>        -0.4315
     32 N2         -2.0884    6.1613   -1.7083 N.pl3     1 <0>        -0.8671
     33 N3         -1.3601    5.3892   -3.8597 N.pl3     1 <0>        -0.8581
     34 N4          0.4455    0.1980   -0.0008 N.am      1 <0>        -0.5687
     35 N5         -3.9799   -2.3853    1.5634 N.am      1 <0>        -0.5746
     36 N6         -2.4324    3.8372   -2.3442 N.pl3     1 <0>        -0.7533
     37 O1         -0.5362   -1.8555   -0.4928 O.2       1 <0>        -0.5843
     38 O2         -2.2998   -4.1783    2.3409 O.2       1 <0>        -0.6812
     39 O3         -3.9527   -1.0962   -0.3713 O.2       1 <0>        -0.5788
     40 O4        -11.1113   -6.0717    0.6505 O.3       1 <0>        -0.4938
     41 O5          0.9879   -6.5072   -0.1510 O.3       1 <0>        -0.6030
     42 O6          1.5971    2.7470   -0.6113 O.3       1 <0>        -0.5860
     43 O7         -6.1634   -2.1870   -1.3365 O.3       1 <0>        -0.6021
     44 H1         -9.1028   -2.2030   -0.5918 H         1 <0>         0.1412
     45 H2         -7.1297   -4.6904    2.3201 H         1 <0>         0.1451
     46 H3        -10.9542   -3.8281   -0.7231 H         1 <0>         0.1336
     47 H4         -8.9835   -6.3139    2.1866 H         1 <0>         0.1567
     48 H5          3.5627   -2.8549    0.7003 H         1 <0>         0.0649
     49 H6          2.0259   -2.5829   -0.0837 H         1 <0>         0.0476
     50 H7          2.8567   -4.7427   -0.7790 H         1 <0>         0.0641
     51 H8          3.1032   -5.2618    0.8729 H         1 <0>         0.0484
     52 H9          2.1569   -0.7868    1.7257 H         1 <0>         0.0596
     53 H10         1.5124   -1.2395    3.3116 H         1 <0>         0.0757
     54 H11         1.0921   -5.7802    2.3299 H         1 <0>         0.0782
     55 H12        -0.5175   -5.5090    1.7393 H         1 <0>         0.0812
     56 H13        -0.5378   -0.6778    2.3126 H         1 <0>         0.0731
     57 H14         2.6304   -3.2407    2.8169 H         1 <0>         0.0511
     58 H15         0.4523   -3.8218    3.4319 H         1 <0>         0.0753
     59 H16         0.3841   -4.5700   -0.3844 H         1 <0>         0.0427
     60 H17        -6.0375    0.3284    3.1563 H         1 <0>         0.0450
     61 H18        -5.8542   -1.3328    3.7128 H         1 <0>         0.0406
     62 H19        -5.2988   -0.8789    2.0908 H         1 <0>         0.0274
     63 H20        -3.3028    0.8425    1.9049 H         1 <0>         0.0476
     64 H21        -4.1178    1.8926    3.0773 H         1 <0>         0.0170
     65 H22        -2.4708    1.3315    3.3922 H         1 <0>         0.0477
     66 H23        -6.4655   -2.3612    1.9727 H         1 <0>         0.0814
     67 H24        -7.2864   -1.3519    0.8004 H         1 <0>         0.0685
     68 H25        -0.1747    2.7139   -3.2707 H         1 <0>         0.1016
     69 H26        -0.9072    1.2071   -3.8124 H         1 <0>         0.0660
     70 H27        -1.7000    0.7382   -1.4859 H         1 <0>         0.0512
     71 H28        -1.0340    2.2618   -0.9330 H         1 <0>         0.0454
     72 H29        -2.0302   -1.0518    4.0061 H         1 <0>         0.0575
     73 H30        -3.3514   -2.1846    4.2177 H         1 <0>         0.0743
     74 H31        -3.1606    2.0474   -3.1093 H         1 <0>         0.0662
     75 H32        -2.4046    3.1224   -4.2942 H         1 <0>         0.0622
     76 H33         1.7842    2.0214   -2.5223 H         1 <0>         0.0321
     77 H34         2.5988    1.0866   -1.2555 H         1 <0>         0.0204
     78 H35        -2.3647   -1.1082    1.5019 H         1 <0>         0.0749
     79 H36        -5.5777   -3.7409   -0.1372 H         1 <0>         0.0719
     80 H37        -4.1195    0.0762    4.7551 H         1 <0>         0.0609
     81 H38         0.5463   -0.0881   -2.0483 H         1 <0>         0.1063
     82 H39        -2.5229    6.0190   -0.8004 H         1 <0>         0.4792
     83 H40        -1.7480    7.0966   -1.9190 H         1 <0>         0.4819
     84 H41        -1.2517    4.6584   -4.5587 H         1 <0>         0.4802
     85 H42        -1.0115    6.3167   -4.0895 H         1 <0>         0.4826
     86 H43         0.8216    0.7626    0.7549 H         1 <0>         0.3101
     87 H44        -4.4957   -3.1095    2.0656 H         1 <0>         0.3087
     88 H45        -2.8683    3.7014   -1.4240 H         1 <0>         0.4846
     89 H46       -11.4852   -6.0838   -0.2450 H         1 <0>         0.4194
     90 H47         1.8515   -6.8926    0.0654 H         1 <0>         0.4036
     91 H48         1.0115    3.3975   -1.0313 H         1 <0>         0.4114
     92 H49        -7.1203   -2.0275   -1.2920 H         1 <0>         0.3944
@<TRIPOS>BOND
     1    1    3 ar
     2    1    5 ar
     3    2    4 ar
     4    2    5 ar
     5    3    6 ar
     6    4    6 ar
     7    5   21 1
     8    6   40 1
     9    7   15 1
    10    7   34 am
    11    7   37 2
    12    8   27 1
    13    8   31 am
    14    8   38 2
    15    9   28 1
    16    9   35 am
    17    9   39 2
    18   10   32 1
    19   10   33 1
    20   10   36 1
    21   11   12 1
    22   11   16 1
    23   12   18 1
    24   13   15 1
    25   13   16 1
    26   14   17 1
    27   14   18 1
    28   15   31 1
    29   16   17 1
    30   17   31 1
    31   18   41 1
    32   19   29 1
    33   20   29 1
    34   21   28 1
    35   22   23 1
    36   22   25 1
    37   23   30 1
    38   24   27 1
    39   24   29 1
    40   25   36 1
    41   26   30 1
    42   26   42 1
    43   27   35 1
    44   28   43 1
    45   30   34 1
    46    1   44 1
    47    2   45 1
    48    3   46 1
    49    4   47 1
    50   11   48 1
    51   11   49 1
    52   12   50 1
    53   12   51 1
    54   13   52 1
    55   13   53 1
    56   14   54 1
    57   14   55 1
    58   15   56 1
    59   16   57 1
    60   17   58 1
    61   18   59 1
    62   19   60 1
    63   19   61 1
    64   19   62 1
    65   20   63 1
    66   20   64 1
    67   20   65 1
    68   21   66 1
    69   21   67 1
    70   22   68 1
    71   22   69 1
    72   23   70 1
    73   23   71 1
    74   24   72 1
    75   24   73 1
    76   25   74 1
    77   25   75 1
    78   26   76 1
    79   26   77 1
    80   27   78 1
    81   28   79 1
    82   29   80 1
    83   30   81 1
    84   32   82 1
    85   32   83 1
    86   33   84 1
    87   33   85 1
    88   34   86 1
    89   35   87 1
    90   36   88 1
    91   40   89 1
    92   41   90 1
    93   42   91 1
    94   43   92 1
@<TRIPOS>MOLECULE
1a2c_ligand_169
   92    94     0     0     0
SMALL
USER_CHARGES

mmff94s_NoEstat = 114.68
@<TRIPOS>ATOM
      1 C1         -5.5598   -5.0305   -4.3987 C.ar      1 <0>        -0.0708
      2 C2         -7.1116   -3.5596   -3.2737 C.ar      1 <0>        -0.0872
      3 C3         -6.6289   -5.7304   -4.9581 C.ar      1 <0>        -0.2241
      4 C4         -8.1806   -4.2595   -3.8331 C.ar      1 <0>        -0.1600
      5 C5         -5.8156   -3.9545   -3.5640 C.ar      1 <0>        -0.1356
      6 C6         -7.9393   -5.3449   -4.6753 C.ar      1 <0>         0.1290
      7 C7         -0.0512   -1.0561    0.2993 C.2       1 <0>         0.6664
      8 C8         -1.8469   -3.0457    2.1630 C.2       1 <0>         0.6651
      9 C9         -3.4040   -2.7670   -0.8258 C.2       1 <0>         0.6454
     10 C10        -0.9406    0.6782   -6.6110 C.cat     1 <0>         0.6349
     11 C11         2.5186   -3.1911    0.6823 C.3       1 <0>        -0.0642
     12 C12         2.4580   -4.6414    0.2376 C.3       1 <0>        -0.0747
     13 C13         1.4874   -1.4827    2.2418 C.3       1 <0>        -0.0873
     14 C14         0.4946   -5.0934    1.7133 C.3       1 <0>        -0.1371
     15 C15         0.0412   -1.4176    1.7503 C.3       1 <0>         0.0360
     16 C16         1.8865   -2.9529    2.0632 C.3       1 <0>        -0.0720
     17 C17         0.5665   -3.7001    2.3454 C.3       1 <0>         0.1201
     18 C18         1.0248   -5.1525    0.2868 C.3       1 <0>         0.1453
     19 C19        -5.7275   -1.2982    0.9287 C.3       1 <0>        -0.0968
     20 C20        -4.2097    0.6462    1.3473 C.3       1 <0>        -0.0986
     21 C21        -4.6582   -3.1963   -2.9589 C.3       1 <0>        -0.0191
     22 C22        -0.9951    2.0137   -3.0747 C.3       1 <0>        -0.1009
     23 C23        -0.8794    1.4488   -1.6540 C.3       1 <0>        -0.0942
     24 C24        -3.7699   -1.5150    2.5525 C.3       1 <0>        -0.0988
     25 C25        -0.9093    0.9015   -4.1176 C.3       1 <0>         0.1966
     26 C26         1.6856    1.6412   -1.5001 C.3       1 <0>         0.1128
     27 C27        -2.8325   -2.1090    1.5076 C.3       1 <0>         0.0786
     28 C28        -4.2317   -3.7794   -1.6077 C.3       1 <0>         0.0744
     29 C29        -4.8597   -0.5919    1.9712 C.3       1 <0>        -0.0678
     30 C30         0.4555    0.7445   -1.3388 C.3       1 <0>         0.1065
     31 N1         -0.4979   -2.7598    1.9615 N.am      1 <0>        -0.4315
     32 N2         -1.0455    1.2596   -7.8703 N.pl3     1 <0>        -0.8671
     33 N3         -0.7637   -0.6976   -6.5120 N.pl3     1 <0>        -0.8581
     34 N4          0.4455    0.1980   -0.0008 N.am      1 <0>        -0.5687
     35 N5         -3.5026   -2.9419    0.5527 N.am      1 <0>        -0.5746
     36 N6         -1.0107    1.4600   -5.4449 N.pl3     1 <0>        -0.7533
     37 O1         -0.5362   -1.8555   -0.4928 O.2       1 <0>        -0.5843
     38 O2         -2.2659   -3.9924    2.8322 O.2       1 <0>        -0.6812
     39 O3         -2.7407   -1.8909   -1.3761 O.2       1 <0>        -0.5788
     40 O4         -8.9824   -6.0269   -5.2225 O.3       1 <0>        -0.4938
     41 O5          0.9879   -6.5072   -0.1510 O.3       1 <0>        -0.6030
     42 O6          2.8639    0.9021   -1.2063 O.3       1 <0>        -0.5860
     43 O7         -3.4297   -4.9297   -1.8337 O.3       1 <0>        -0.6021
     44 H1         -4.5425   -5.3383   -4.6246 H         1 <0>         0.1412
     45 H2         -7.3091   -2.7149   -2.6188 H         1 <0>         0.1451
     46 H3         -6.4344   -6.5748   -5.6134 H         1 <0>         0.1336
     47 H4         -9.1994   -3.9538   -3.6097 H         1 <0>         0.1567
     48 H5          3.5627   -2.8549    0.7003 H         1 <0>         0.0649
     49 H6          2.0259   -2.5829   -0.0837 H         1 <0>         0.0476
     50 H7          2.8567   -4.7427   -0.7790 H         1 <0>         0.0641
     51 H8          3.1032   -5.2618    0.8729 H         1 <0>         0.0484
     52 H9          2.1569   -0.7868    1.7257 H         1 <0>         0.0596
     53 H10         1.5124   -1.2395    3.3116 H         1 <0>         0.0757
     54 H11         1.0921   -5.7802    2.3299 H         1 <0>         0.0782
     55 H12        -0.5175   -5.5090    1.7393 H         1 <0>         0.0812
     56 H13        -0.5378   -0.6778    2.3126 H         1 <0>         0.0731
     57 H14         2.6304   -3.2407    2.8169 H         1 <0>         0.0511
     58 H15         0.4523   -3.8218    3.4319 H         1 <0>         0.0753
     59 H16         0.3841   -4.5700   -0.3844 H         1 <0>         0.0427
     60 H17        -6.4424   -0.5993    0.4810 H         1 <0>         0.0450
     61 H18        -6.3080   -2.1101    1.3767 H         1 <0>         0.0406
     62 H19        -5.1167   -1.7184    0.1225 H         1 <0>         0.0274
     63 H20        -3.5507    0.3732    0.5159 H         1 <0>         0.0476
     64 H21        -4.9709    1.3343    0.9644 H         1 <0>         0.0170
     65 H22        -3.6139    1.1889    2.0888 H         1 <0>         0.0477
     66 H23        -4.9408   -2.1416   -2.8414 H         1 <0>         0.0814
     67 H24        -3.8274   -3.2052   -3.6757 H         1 <0>         0.0685
     68 H25        -1.9473    2.5434   -3.1941 H         1 <0>         0.1016
     69 H26        -0.1993    2.7456   -3.2583 H         1 <0>         0.0660
     70 H27        -1.7000    0.7382   -1.4859 H         1 <0>         0.0512
     71 H28        -1.0340    2.2618   -0.9330 H         1 <0>         0.0454
     72 H29        -3.1790   -0.9587    3.2928 H         1 <0>         0.0575
     73 H30        -4.2588   -2.3274    3.1083 H         1 <0>         0.0743
     74 H31        -1.7187    0.1787   -3.9697 H         1 <0>         0.0662
     75 H32         0.0401    0.3636   -4.0280 H         1 <0>         0.0622
     76 H33         1.6463    2.5133   -0.8391 H         1 <0>         0.0321
     77 H34         1.7645    2.0016   -2.5321 H         1 <0>         0.0204
     78 H35        -2.2612   -1.3523    0.9714 H         1 <0>         0.0749
     79 H36        -5.0980   -4.0774   -1.0053 H         1 <0>         0.0719
     80 H37        -5.5109   -0.2494    2.7849 H         1 <0>         0.0609
     81 H38         0.5463   -0.0881   -2.0483 H         1 <0>         0.1063
     82 H39        -1.1773    2.2602   -7.9911 H         1 <0>         0.4792
     83 H40        -0.9951    0.6924   -8.7134 H         1 <0>         0.4819
     84 H41        -0.6834   -1.1551   -5.6072 H         1 <0>         0.4802
     85 H42        -0.7090   -1.2825   -7.3424 H         1 <0>         0.4826
     86 H43         0.8216    0.7626    0.7549 H         1 <0>         0.3101
     87 H44        -4.0841   -3.7053    0.9020 H         1 <0>         0.3087
     88 H45        -1.1420    2.4704   -5.5758 H         1 <0>         0.4846
     89 H46        -8.7515   -6.9631   -5.3324 H         1 <0>         0.4194
     90 H47         1.8515   -6.8926    0.0654 H         1 <0>         0.4036
     91 H48         2.9483    0.8828   -0.2393 H         1 <0>         0.4114
     92 H49        -3.5708   -5.1935   -2.7576 H         1 <0>         0.3944
@<TRIPOS>BOND
     1    1    3 ar
     2    1    5 ar
     3    2    4 ar
     4    2    5 ar
     5    3    6 ar
     6    4    6 ar
     7    5   21 1
     8    6   40 1
     9    7   15 1
    10    7   34 am
    11    7   37 2
    12    8   27 1
    13    8   31 am
    14    8   38 2
    15    9   28 1
    16    9   35 am
    17    9   39 2
    18   10   32 1
    19   10   33 1
    20   10   36 1
    21   11   12 1
    22   11   16 1
    23   12   18 1
    24   13   15 1
    25   13   16 1
    26   14   17 1
    27   14   18 1
    28   15   31 1
    29   16   17 1
    30   17   31 1
    31   18   41 1
    32   19   29 1
    33   20   29 1
    34   21   28 1
    35   22   23 1
    36   22   25 1
    37   23   30 1
    38   24   27 1
    39   24   29 1
    40   25   36 1
    41   26   30 1
    42   26   42 1
    43   27   35 1
    44   28   43 1
    45   30   34 1
    46    1   44 1
    47    2   45 1
    48    3   46 1
    49    4   47 1
    50   11   48 1
    51   11   49 1
    52   12   50 1
    53   12   51 1
    54   13   52 1
    55   13   53 1
    56   14   54 1
    57   14   55 1
    58   15   56 1
    59   16   57 1
    60   17   58 1
    61   18   59 1
    62   19   60 1
    63   19   61 1
    64   19   62 1
    65   20   63 1
    66   20   64 1
    67   20   65 1
    68   21   66 1
    69   21   67 1
    70   22   68 1
    71   22   69 1
    72   23   70 1
    73   23   71 1
    74   24   72 1
    75   24   73 1
    76   25   74 1
    77   25   75 1
    78   26   76 1
    79   26   77 1
    80   27   78 1
    81   28   79 1
    82   29   80 1
    83   30   81 1
    84   32   82 1
    85   32   83 1
    86   33   84 1
    87   33   85 1
    88   34   86 1
    89   35   87 1
    90   36   88 1
    91   40   89 1
    92   41   90 1
    93   42   91 1
    94   43   92 1
@<TRIPOS>MOLECULE
1a2c_ligand_170
   92    94     0     0     0
SMALL
USER_CHARGES

mmff94s_NoEstat = 114.77
@<TRIPOS>ATOM
      1 C1         -7.1365   -2.8677   -2.9678 C.ar      1 <0>        -0.0708
      2 C2         -5.7068   -0.9564   -2.5937 C.ar      1 <0>        -0.0872
      3 C3         -8.2603   -2.0492   -2.8547 C.ar      1 <0>        -0.2241
      4 C4         -6.8306   -0.1379   -2.4807 C.ar      1 <0>        -0.1600
      5 C5         -5.8748   -2.3103   -2.8358 C.ar      1 <0>        -0.1356
      6 C6         -8.1073   -0.6843   -2.6112 C.ar      1 <0>         0.1290
      7 C7         -0.0512   -1.0561    0.2993 C.2       1 <0>         0.6664
      8 C8         -1.8469   -3.0457    2.1630 C.2       1 <0>         0.6651
      9 C9         -3.4040   -2.7670   -0.8258 C.2       1 <0>         0.6454
     10 C10        -0.9406    0.6782   -6.6110 C.cat     1 <0>         0.6349
     11 C11         2.5186   -3.1911    0.6823 C.3       1 <0>        -0.0642
     12 C12         2.4580   -4.6414    0.2376 C.3       1 <0>        -0.0747
     13 C13         1.4874   -1.4827    2.2418 C.3       1 <0>        -0.0873
     14 C14         0.4946   -5.0934    1.7133 C.3       1 <0>        -0.1371
     15 C15         0.0412   -1.4176    1.7503 C.3       1 <0>         0.0360
     16 C16         1.8865   -2.9529    2.0632 C.3       1 <0>        -0.0720
     17 C17         0.5665   -3.7001    2.3454 C.3       1 <0>         0.1201
     18 C18         1.0248   -5.1525    0.2868 C.3       1 <0>         0.1453
     19 C19        -5.7275   -1.2982    0.9287 C.3       1 <0>        -0.0968
     20 C20        -4.2097    0.6462    1.3473 C.3       1 <0>        -0.0986
     21 C21        -4.6582   -3.1963   -2.9589 C.3       1 <0>        -0.0191
     22 C22        -0.9951    2.0137   -3.0747 C.3       1 <0>        -0.1009
     23 C23        -0.8794    1.4488   -1.6540 C.3       1 <0>        -0.0942
     24 C24        -3.7699   -1.5150    2.5525 C.3       1 <0>        -0.0988
     25 C25        -0.9093    0.9015   -4.1176 C.3       1 <0>         0.1966
     26 C26         1.6856    1.6412   -1.5001 C.3       1 <0>         0.1128
     27 C27        -2.8325   -2.1090    1.5076 C.3       1 <0>         0.0786
     28 C28        -4.2317   -3.7794   -1.6077 C.3       1 <0>         0.0744
     29 C29        -4.8597   -0.5919    1.9712 C.3       1 <0>        -0.0678
     30 C30         0.4555    0.7445   -1.3388 C.3       1 <0>         0.1065
     31 N1         -0.4979   -2.7598    1.9615 N.am      1 <0>        -0.4315
     32 N2         -1.0455    1.2596   -7.8703 N.pl3     1 <0>        -0.8671
     33 N3         -0.7637   -0.6976   -6.5120 N.pl3     1 <0>        -0.8581
     34 N4          0.4455    0.1980   -0.0008 N.am      1 <0>        -0.5687
     35 N5         -3.5026   -2.9419    0.5527 N.am      1 <0>        -0.5746
     36 N6         -1.0107    1.4600   -5.4449 N.pl3     1 <0>        -0.7533
     37 O1         -0.5362   -1.8555   -0.4928 O.2       1 <0>        -0.5843
     38 O2         -2.2659   -3.9924    2.8322 O.2       1 <0>        -0.6812
     39 O3         -2.7407   -1.8909   -1.3761 O.2       1 <0>        -0.5788
     40 O4         -9.2039    0.1147   -2.5025 O.3       1 <0>        -0.4938
     41 O5          0.9879   -6.5072   -0.1510 O.3       1 <0>        -0.6030
     42 O6          2.8639    0.9021   -1.2063 O.3       1 <0>        -0.5860
     43 O7         -3.4297   -4.9297   -1.8337 O.3       1 <0>        -0.6021
     44 H1         -7.2656   -3.9298   -3.1574 H         1 <0>         0.1412
     45 H2         -4.7158   -0.5219   -2.4909 H         1 <0>         0.1451
     46 H3         -9.2520   -2.4807   -2.9575 H         1 <0>         0.1336
     47 H4         -6.7049    0.9250   -2.2918 H         1 <0>         0.1567
     48 H5          3.5627   -2.8549    0.7003 H         1 <0>         0.0649
     49 H6          2.0259   -2.5829   -0.0837 H         1 <0>         0.0476
     50 H7          2.8567   -4.7427   -0.7790 H         1 <0>         0.0641
     51 H8          3.1032   -5.2618    0.8729 H         1 <0>         0.0484
     52 H9          2.1569   -0.7868    1.7257 H         1 <0>         0.0596
     53 H10         1.5124   -1.2395    3.3116 H         1 <0>         0.0757
     54 H11         1.0921   -5.7802    2.3299 H         1 <0>         0.0782
     55 H12        -0.5175   -5.5090    1.7393 H         1 <0>         0.0812
     56 H13        -0.5378   -0.6778    2.3126 H         1 <0>         0.0731
     57 H14         2.6304   -3.2407    2.8169 H         1 <0>         0.0511
     58 H15         0.4523   -3.8218    3.4319 H         1 <0>         0.0753
     59 H16         0.3841   -4.5700   -0.3844 H         1 <0>         0.0427
     60 H17        -6.4424   -0.5993    0.4810 H         1 <0>         0.0450
     61 H18        -6.3080   -2.1101    1.3767 H         1 <0>         0.0406
     62 H19        -5.1167   -1.7184    0.1225 H         1 <0>         0.0274
     63 H20        -3.5507    0.3732    0.5159 H         1 <0>         0.0476
     64 H21        -4.9709    1.3343    0.9644 H         1 <0>         0.0170
     65 H22        -3.6139    1.1889    2.0888 H         1 <0>         0.0477
     66 H23        -3.8338   -2.6171   -3.3960 H         1 <0>         0.0814
     67 H24        -4.8817   -3.9909   -3.6819 H         1 <0>         0.0685
     68 H25        -1.9473    2.5434   -3.1941 H         1 <0>         0.1016
     69 H26        -0.1993    2.7456   -3.2583 H         1 <0>         0.0660
     70 H27        -1.7000    0.7382   -1.4859 H         1 <0>         0.0512
     71 H28        -1.0340    2.2618   -0.9330 H         1 <0>         0.0454
     72 H29        -3.1790   -0.9587    3.2928 H         1 <0>         0.0575
     73 H30        -4.2588   -2.3274    3.1083 H         1 <0>         0.0743
     74 H31        -1.7187    0.1787   -3.9697 H         1 <0>         0.0662
     75 H32         0.0401    0.3636   -4.0280 H         1 <0>         0.0622
     76 H33         1.6463    2.5133   -0.8391 H         1 <0>         0.0321
     77 H34         1.7645    2.0016   -2.5321 H         1 <0>         0.0204
     78 H35        -2.2612   -1.3523    0.9714 H         1 <0>         0.0749
     79 H36        -5.0980   -4.0774   -1.0053 H         1 <0>         0.0719
     80 H37        -5.5109   -0.2494    2.7849 H         1 <0>         0.0609
     81 H38         0.5463   -0.0881   -2.0483 H         1 <0>         0.1063
     82 H39        -1.1773    2.2602   -7.9911 H         1 <0>         0.4792
     83 H40        -0.9951    0.6924   -8.7134 H         1 <0>         0.4819
     84 H41        -0.6834   -1.1551   -5.6072 H         1 <0>         0.4802
     85 H42        -0.7090   -1.2825   -7.3424 H         1 <0>         0.4826
     86 H43         0.8216    0.7626    0.7549 H         1 <0>         0.3101
     87 H44        -4.0841   -3.7053    0.9020 H         1 <0>         0.3087
     88 H45        -1.1420    2.4704   -5.5758 H         1 <0>         0.4846
     89 H46        -9.9437   -0.3803   -2.1156 H         1 <0>         0.4194
     90 H47         1.8515   -6.8926    0.0654 H         1 <0>         0.4036
     91 H48         2.9483    0.8828   -0.2393 H         1 <0>         0.4114
     92 H49        -3.5708   -5.1935   -2.7576 H         1 <0>         0.3944
@<TRIPOS>BOND
     1    1    3 ar
     2    1    5 ar
     3    2    4 ar
     4    2    5 ar
     5    3    6 ar
     6    4    6 ar
     7    5   21 1
     8    6   40 1
     9    7   15 1
    10    7   34 am
    11    7   37 2
    12    8   27 1
    13    8   31 am
    14    8   38 2
    15    9   28 1
    16    9   35 am
    17    9   39 2
    18   10   32 1
    19   10   33 1
    20   10   36 1
    21   11   12 1
    22   11   16 1
    23   12   18 1
    24   13   15 1
    25   13   16 1
    26   14   17 1
    27   14   18 1
    28   15   31 1
    29   16   17 1
    30   17   31 1
    31   18   41 1
    32   19   29 1
    33   20   29 1
    34   21   28 1
    35   22   23 1
    36   22   25 1
    37   23   30 1
    38   24   27 1
    39   24   29 1
    40   25   36 1
    41   26   30 1
    42   26   42 1
    43   27   35 1
    44   28   43 1
    45   30   34 1
    46    1   44 1
    47    2   45 1
    48    3   46 1
    49    4   47 1
    50   11   48 1
    51   11   49 1
    52   12   50 1
    53   12   51 1
    54   13   52 1
    55   13   53 1
    56   14   54 1
    57   14   55 1
    58   15   56 1
    59   16   57 1
    60   17   58 1
    61   18   59 1
    62   19   60 1
    63   19   61 1
    64   19   62 1
    65   20   63 1
    66   20   64 1
    67   20   65 1
    68   21   66 1
    69   21   67 1
    70   22   68 1
    71   22   69 1
    72   23   70 1
    73   23   71 1
    74   24   72 1
    75   24   73 1
    76   25   74 1
    77   25   75 1
    78   26   76 1
    79   26   77 1
    80   27   78 1
    81   28   79 1
    82   29   80 1
    83   30   81 1
    84   32   82 1
    85   32   83 1
    86   33   84 1
    87   33   85 1
    88   34   86 1
    89   35   87 1
    90   36   88 1
    91   40   89 1
    92   41   90 1
    93   42   91 1
    94   43   92 1
@<TRIPOS>MOLECULE
1a2c_ligand_171
   92    94     0     0     0
SMALL
USER_CHARGES

mmff94s_NoEstat = 114.77
@<TRIPOS>ATOM
      1 C1          9.1194    0.3522    5.3691 C.ar      1 <0>        -0.0708
      2 C2          7.5116    1.9345    4.5040 C.ar      1 <0>        -0.0872
      3 C3         10.1172    1.3238    5.2919 C.ar      1 <0>        -0.2241
      4 C4          8.5094    2.9061    4.4268 C.ar      1 <0>        -0.1600
      5 C5          7.8301    0.6705    4.9742 C.ar      1 <0>        -0.1356
      6 C6          9.8122    2.6008    4.8207 C.ar      1 <0>         0.1290
      7 C7          0.1755   -1.0766    0.1327 C.2       1 <0>         0.6664
      8 C8          2.3785   -0.9757    2.2764 C.2       1 <0>         0.6651
      9 C9          5.2968   -1.9145    3.7000 C.2       1 <0>         0.6454
     10 C10        -1.2861    1.9242    4.3304 C.cat     1 <0>         0.6349
     11 C11         2.4521   -5.3069   -0.2561 C.3       1 <0>        -0.0642
     12 C12         1.2413   -5.9691    0.3982 C.3       1 <0>        -0.0747
     13 C13         1.5734   -2.9393   -0.7647 C.3       1 <0>        -0.0873
     14 C14         1.0938   -4.1277    2.1072 C.3       1 <0>        -0.1371
     15 C15         1.5650   -1.6216    0.0133 C.3       1 <0>         0.0360
     16 C16         2.5597   -3.8106    0.0203 C.3       1 <0>        -0.0720
     17 C17         2.2934   -3.4012    1.4755 C.3       1 <0>         0.1201
     18 C18         1.1411   -5.6363    1.8853 C.3       1 <0>         0.1453
     19 C19         3.8896   -0.8379    6.4377 C.3       1 <0>        -0.0968
     20 C20         2.2599   -2.7349    6.3694 C.3       1 <0>        -0.0986
     21 C21         6.7497   -0.3812    5.0585 C.3       1 <0>        -0.0191
     22 C22        -0.6430    2.4326    0.6399 C.3       1 <0>        -0.1009
     23 C23        -1.2979    2.0260   -0.6854 C.3       1 <0>        -0.0942
     24 C24         1.9925   -0.8489    4.7298 C.3       1 <0>        -0.0988
     25 C25        -1.4152    1.8692    1.8307 C.3       1 <0>         0.1966
     26 C26        -2.1127    0.1273   -2.2253 C.3       1 <0>         0.1128
     27 C27         2.8496   -1.4560    3.6253 C.3       1 <0>         0.0786
     28 C28         6.6400   -1.1984    3.7670 C.3       1 <0>         0.0744
     29 C29         2.4383   -1.2292    6.1562 C.3       1 <0>        -0.0678
     30 C30        -1.4370    0.5062   -0.9051 C.3       1 <0>         0.1065
     31 N1          2.0322   -1.9586    1.3590 N.am      1 <0>        -0.4315
     32 N2         -0.6437    2.3351    5.4937 N.pl3     1 <0>        -0.8671
     33 N3         -2.4412    1.1561    4.4289 N.pl3     1 <0>        -0.8581
     34 N4         -0.1481   -0.1440   -0.8342 N.am      1 <0>        -0.5687
     35 N5          4.2184   -1.0331    3.6724 N.am      1 <0>        -0.5746
     36 N6         -0.7846    2.2739    3.0647 N.pl3     1 <0>        -0.7533
     37 O1         -0.5534   -1.4727    1.0347 O.2       1 <0>        -0.5843
     38 O2          2.3230    0.2335    2.0409 O.2       1 <0>        -0.6812
     39 O3          5.2019   -3.1398    3.6875 O.2       1 <0>        -0.5788
     40 O4         10.7855    3.5494    4.7469 O.3       1 <0>        -0.4938
     41 O5          2.2611   -6.1715    2.5852 O.3       1 <0>        -0.6030
     42 O6         -2.2112   -1.2870   -2.3289 O.3       1 <0>        -0.5860
     43 O7          7.6677   -2.1787    3.7522 O.3       1 <0>        -0.6021
     44 H1          9.3666   -0.6398    5.7373 H         1 <0>         0.1412
     45 H2          6.4992    2.1814    4.1952 H         1 <0>         0.1451
     46 H3         11.1300    1.0799    5.6003 H         1 <0>         0.1336
     47 H4          8.2654    3.8995    4.0597 H         1 <0>         0.1567
     48 H5          3.3605   -5.7937    0.1218 H         1 <0>         0.0649
     49 H6          2.4319   -5.4897   -1.3370 H         1 <0>         0.0476
     50 H7          0.3241   -5.6545   -0.1129 H         1 <0>         0.0641
     51 H8          1.3294   -7.0545    0.2691 H         1 <0>         0.0484
     52 H9          0.5754   -3.3919   -0.8000 H         1 <0>         0.0596
     53 H10         1.8977   -2.7914   -1.8003 H         1 <0>         0.0757
     54 H11         1.0807   -3.9085    3.1823 H         1 <0>         0.0782
     55 H12         0.1523   -3.7376    1.7002 H         1 <0>         0.0812
     56 H13         2.2202   -0.8626   -0.4249 H         1 <0>         0.0731
     57 H14         3.5726   -3.4842   -0.2571 H         1 <0>         0.0511
     58 H15         3.1875   -3.5701    2.0864 H         1 <0>         0.0753
     59 H16         0.2435   -6.1003    2.3075 H         1 <0>         0.0427
     60 H17         4.2001   -1.1859    7.4289 H         1 <0>         0.0450
     61 H18         4.0203    0.2482    6.4220 H         1 <0>         0.0406
     62 H19         4.5693   -1.2752    5.6986 H         1 <0>         0.0274
     63 H20         2.8852   -3.3113    5.6789 H         1 <0>         0.0476
     64 H21         2.5335   -3.0185    7.3913 H         1 <0>         0.0170
     65 H22         1.2173   -3.0301    6.2104 H         1 <0>         0.0477
     66 H23         5.7901    0.1053    5.2788 H         1 <0>         0.0814
     67 H24         6.9627   -1.0264    5.9201 H         1 <0>         0.0685
     68 H25         0.3900    2.0675    0.6783 H         1 <0>         0.1016
     69 H26        -0.5969    3.5252    0.7212 H         1 <0>         0.0660
     70 H27        -0.7150    2.4492   -1.5148 H         1 <0>         0.0512
     71 H28        -2.2909    2.4892   -0.7497 H         1 <0>         0.0454
     72 H29         0.9469   -1.1516    4.5828 H         1 <0>         0.0575
     73 H30         2.0032    0.2464    4.6399 H         1 <0>         0.0743
     74 H31        -1.4416    0.7754    1.7834 H         1 <0>         0.0662
     75 H32        -2.4491    2.2294    1.8230 H         1 <0>         0.0622
     76 H33        -1.5587    0.5035   -3.0917 H         1 <0>         0.0321
     77 H34        -3.1279    0.5382   -2.2680 H         1 <0>         0.0204
     78 H35         2.8203   -2.5449    3.6159 H         1 <0>         0.0749
     79 H36         6.7551   -0.5663    2.8785 H         1 <0>         0.0719
     80 H37         1.7968   -0.7138    6.8816 H         1 <0>         0.0609
     81 H38        -2.0581    0.1260   -0.0837 H         1 <0>         0.1063
     82 H39         0.2039    2.8957    5.4704 H         1 <0>         0.4792
     83 H40        -1.0075    2.0807    6.4092 H         1 <0>         0.4819
     84 H41        -2.9358    0.8388    3.5987 H         1 <0>         0.4802
     85 H42        -2.8225    0.8924    5.3343 H         1 <0>         0.4826
     86 H43         0.5534    0.0962   -1.5282 H         1 <0>         0.3101
     87 H44         4.4137   -0.0309    3.6864 H         1 <0>         0.3087
     88 H45         0.0710    2.8422    3.0499 H         1 <0>         0.4846
     89 H46        11.6422    3.1378    4.5506 H         1 <0>         0.4194
     90 H47         2.7873   -5.4145    2.8873 H         1 <0>         0.4036
     91 H48        -1.3448   -1.6067   -2.6281 H         1 <0>         0.4114
     92 H49         8.3173   -1.9150    4.4243 H         1 <0>         0.3944
@<TRIPOS>BOND
     1    1    3 ar
     2    1    5 ar
     3    2    4 ar
     4    2    5 ar
     5    3    6 ar
     6    4    6 ar
     7    5   21 1
     8    6   40 1
     9    7   15 1
    10    7   34 am
    11    7   37 2
    12    8   27 1
    13    8   31 am
    14    8   38 2
    15    9   28 1
    16    9   35 am
    17    9   39 2
    18   10   32 1
    19   10   33 1
    20   10   36 1
    21   11   12 1
    22   11   16 1
    23   12   18 1
    24   13   15 1
    25   13   16 1
    26   14   17 1
    27   14   18 1
    28   15   31 1
    29   16   17 1
    30   17   31 1
    31   18   41 1
    32   19   29 1
    33   20   29 1
    34   21   28 1
    35   22   23 1
    36   22   25 1
    37   23   30 1
    38   24   27 1
    39   24   29 1
    40   25   36 1
    41   26   30 1
    42   26   42 1
    43   27   35 1
    44   28   43 1
    45   30   34 1
    46    1   44 1
    47    2   45 1
    48    3   46 1
    49    4   47 1
    50   11   48 1
    51   11   49 1
    52   12   50 1
    53   12   51 1
    54   13   52 1
    55   13   53 1
    56   14   54 1
    57   14   55 1
    58   15   56 1
    59   16   57 1
    60   17   58 1
    61   18   59 1
    62   19   60 1
    63   19   61 1
    64   19   62 1
    65   20   63 1
    66   20   64 1
    67   20   65 1
    68   21   66 1
    69   21   67 1
    70   22   68 1
    71   22   69 1
    72   23   70 1
    73   23   71 1
    74   24   72 1
    75   24   73 1
    76   25   74 1
    77   25   75 1
    78   26   76 1
    79   26   77 1
    80   27   78 1
    81   28   79 1
    82   29   80 1
    83   30   81 1
    84   32   82 1
    85   32   83 1
    86   33   84 1
    87   33   85 1
    88   34   86 1
    89   35   87 1
    90   36   88 1
    91   40   89 1
    92   41   90 1
    93   42   91 1
    94   43   92 1
@<TRIPOS>MOLECULE
1a2c_ligand_172
   92    94     0     0     0
SMALL
USER_CHARGES

mmff94s_NoEstat = 114.81
@<TRIPOS>ATOM
      1 C1          9.1194    0.3522    5.3691 C.ar      1 <0>        -0.0708
      2 C2          7.5116    1.9345    4.5040 C.ar      1 <0>        -0.0872
      3 C3         10.1172    1.3238    5.2919 C.ar      1 <0>        -0.2241
      4 C4          8.5094    2.9061    4.4268 C.ar      1 <0>        -0.1600
      5 C5          7.8301    0.6705    4.9742 C.ar      1 <0>        -0.1356
      6 C6          9.8122    2.6008    4.8207 C.ar      1 <0>         0.1290
      7 C7          0.1755   -1.0766    0.1327 C.2       1 <0>         0.6664
      8 C8          2.3785   -0.9757    2.2764 C.2       1 <0>         0.6651
      9 C9          5.2968   -1.9145    3.7000 C.2       1 <0>         0.6454
     10 C10         1.1004    3.5700    2.4005 C.cat     1 <0>         0.6349
     11 C11         2.4521   -5.3069   -0.2561 C.3       1 <0>        -0.0642
     12 C12         1.2413   -5.9691    0.3982 C.3       1 <0>        -0.0747
     13 C13         1.5734   -2.9393   -0.7647 C.3       1 <0>        -0.0873
     14 C14         1.0938   -4.1277    2.1072 C.3       1 <0>        -0.1371
     15 C15         1.5650   -1.6216    0.0133 C.3       1 <0>         0.0360
     16 C16         2.5597   -3.8106    0.0203 C.3       1 <0>        -0.0720
     17 C17         2.2934   -3.4012    1.4755 C.3       1 <0>         0.1201
     18 C18         1.1411   -5.6363    1.8853 C.3       1 <0>         0.1453
     19 C19         3.8896   -0.8379    6.4377 C.3       1 <0>        -0.0968
     20 C20         2.2599   -2.7349    6.3694 C.3       1 <0>        -0.0986
     21 C21         6.7497   -0.3812    5.0585 C.3       1 <0>        -0.0191
     22 C22        -0.4775    2.8629   -0.4016 C.3       1 <0>        -0.1009
     23 C23        -1.4688    1.7610   -0.0095 C.3       1 <0>        -0.0942
     24 C24         1.9925   -0.8489    4.7298 C.3       1 <0>        -0.0988
     25 C25        -0.5460    4.0366    0.5730 C.3       1 <0>         0.1966
     26 C26        -1.7753    0.7801   -2.3726 C.3       1 <0>         0.1128
     27 C27         2.8496   -1.4560    3.6253 C.3       1 <0>         0.0786
     28 C28         6.6400   -1.1984    3.7670 C.3       1 <0>         0.0744
     29 C29         2.4383   -1.2292    6.1562 C.3       1 <0>        -0.0678
     30 C30        -1.4370    0.5062   -0.9051 C.3       1 <0>         0.1065
     31 N1          2.0322   -1.9586    1.3590 N.am      1 <0>        -0.4315
     32 N2          1.3723    3.1350    3.6934 N.pl3     1 <0>        -0.8671
     33 N3          2.1510    3.9878    1.5908 N.pl3     1 <0>        -0.8581
     34 N4         -0.1481   -0.1440   -0.8342 N.am      1 <0>        -0.5687
     35 N5          4.2184   -1.0331    3.6724 N.am      1 <0>        -0.5746
     36 N6         -0.2152    3.5919    1.9060 N.pl3     1 <0>        -0.7533
     37 O1         -0.5534   -1.4727    1.0347 O.2       1 <0>        -0.5843
     38 O2          2.3230    0.2335    2.0409 O.2       1 <0>        -0.6812
     39 O3          5.2019   -3.1398    3.6875 O.2       1 <0>        -0.5788
     40 O4         10.7855    3.5494    4.7469 O.3       1 <0>        -0.4938
     41 O5          2.2611   -6.1715    2.5852 O.3       1 <0>        -0.6030
     42 O6         -1.7377   -0.4337   -3.1116 O.3       1 <0>        -0.5860
     43 O7          7.6677   -2.1787    3.7522 O.3       1 <0>        -0.6021
     44 H1          9.3666   -0.6398    5.7373 H         1 <0>         0.1412
     45 H2          6.4992    2.1814    4.1952 H         1 <0>         0.1451
     46 H3         11.1300    1.0799    5.6003 H         1 <0>         0.1336
     47 H4          8.2654    3.8995    4.0597 H         1 <0>         0.1567
     48 H5          3.3605   -5.7937    0.1218 H         1 <0>         0.0649
     49 H6          2.4319   -5.4897   -1.3370 H         1 <0>         0.0476
     50 H7          0.3241   -5.6545   -0.1129 H         1 <0>         0.0641
     51 H8          1.3294   -7.0545    0.2691 H         1 <0>         0.0484
     52 H9          0.5754   -3.3919   -0.8000 H         1 <0>         0.0596
     53 H10         1.8977   -2.7914   -1.8003 H         1 <0>         0.0757
     54 H11         1.0807   -3.9085    3.1823 H         1 <0>         0.0782
     55 H12         0.1523   -3.7376    1.7002 H         1 <0>         0.0812
     56 H13         2.2202   -0.8626   -0.4249 H         1 <0>         0.0731
     57 H14         3.5726   -3.4842   -0.2571 H         1 <0>         0.0511
     58 H15         3.1875   -3.5701    2.0864 H         1 <0>         0.0753
     59 H16         0.2435   -6.1003    2.3075 H         1 <0>         0.0427
     60 H17         4.2001   -1.1859    7.4289 H         1 <0>         0.0450
     61 H18         4.0203    0.2482    6.4220 H         1 <0>         0.0406
     62 H19         4.5693   -1.2752    5.6986 H         1 <0>         0.0274
     63 H20         2.8852   -3.3113    5.6789 H         1 <0>         0.0476
     64 H21         2.5335   -3.0185    7.3913 H         1 <0>         0.0170
     65 H22         1.2173   -3.0301    6.2104 H         1 <0>         0.0477
     66 H23         5.7901    0.1053    5.2788 H         1 <0>         0.0814
     67 H24         6.9627   -1.0264    5.9201 H         1 <0>         0.0685
     68 H25         0.5442    2.4657   -0.4119 H         1 <0>         0.1016
     69 H26        -0.6893    3.2209   -1.4162 H         1 <0>         0.0660
     70 H27        -2.4857    2.1763   -0.0223 H         1 <0>         0.0512
     71 H28        -1.2792    1.4636    1.0299 H         1 <0>         0.0454
     72 H29         0.9469   -1.1516    4.5828 H         1 <0>         0.0575
     73 H30         2.0032    0.2464    4.6399 H         1 <0>         0.0743
     74 H31        -1.5526    4.4679    0.5783 H         1 <0>         0.0662
     75 H32         0.1539    4.8242    0.2753 H         1 <0>         0.0622
     76 H33        -1.0762    1.4888   -2.8288 H         1 <0>         0.0321
     77 H34        -2.7854    1.1959   -2.4619 H         1 <0>         0.0204
     78 H35         2.8203   -2.5449    3.6159 H         1 <0>         0.0749
     79 H36         6.7551   -0.5663    2.8785 H         1 <0>         0.0719
     80 H37         1.7968   -0.7138    6.8816 H         1 <0>         0.0609
     81 H38        -2.1912   -0.1839   -0.5053 H         1 <0>         0.1063
     82 H39         0.6365    2.8225    4.3213 H         1 <0>         0.4792
     83 H40         2.3250    3.1203    4.0502 H         1 <0>         0.4819
     84 H41         1.9877    4.3119    0.6406 H         1 <0>         0.4802
     85 H42         3.1108    3.9793    1.9274 H         1 <0>         0.4826
     86 H43         0.5534    0.0962   -1.5282 H         1 <0>         0.3101
     87 H44         4.4137   -0.0309    3.6864 H         1 <0>         0.3087
     88 H45        -0.9525    3.2726    2.5461 H         1 <0>         0.4846
     89 H46        11.6422    3.1378    4.5506 H         1 <0>         0.4194
     90 H47         2.7873   -5.4145    2.8873 H         1 <0>         0.4036
     91 H48        -0.8044   -0.6103   -3.3124 H         1 <0>         0.4114
     92 H49         8.3173   -1.9150    4.4243 H         1 <0>         0.3944
@<TRIPOS>BOND
     1    1    3 ar
     2    1    5 ar
     3    2    4 ar
     4    2    5 ar
     5    3    6 ar
     6    4    6 ar
     7    5   21 1
     8    6   40 1
     9    7   15 1
    10    7   34 am
    11    7   37 2
    12    8   27 1
    13    8   31 am
    14    8   38 2
    15    9   28 1
    16    9   35 am
    17    9   39 2
    18   10   32 1
    19   10   33 1
    20   10   36 1
    21   11   12 1
    22   11   16 1
    23   12   18 1
    24   13   15 1
    25   13   16 1
    26   14   17 1
    27   14   18 1
    28   15   31 1
    29   16   17 1
    30   17   31 1
    31   18   41 1
    32   19   29 1
    33   20   29 1
    34   21   28 1
    35   22   23 1
    36   22   25 1
    37   23   30 1
    38   24   27 1
    39   24   29 1
    40   25   36 1
    41   26   30 1
    42   26   42 1
    43   27   35 1
    44   28   43 1
    45   30   34 1
    46    1   44 1
    47    2   45 1
    48    3   46 1
    49    4   47 1
    50   11   48 1
    51   11   49 1
    52   12   50 1
    53   12   51 1
    54   13   52 1
    55   13   53 1
    56   14   54 1
    57   14   55 1
    58   15   56 1
    59   16   57 1
    60   17   58 1
    61   18   59 1
    62   19   60 1
    63   19   61 1
    64   19   62 1
    65   20   63 1
    66   20   64 1
    67   20   65 1
    68   21   66 1
    69   21   67 1
    70   22   68 1
    71   22   69 1
    72   23   70 1
    73   23   71 1
    74   24   72 1
    75   24   73 1
    76   25   74 1
    77   25   75 1
    78   26   76 1
    79   26   77 1
    80   27   78 1
    81   28   79 1
    82   29   80 1
    83   30   81 1
    84   32   82 1
    85   32   83 1
    86   33   84 1
    87   33   85 1
    88   34   86 1
    89   35   87 1
    90   36   88 1
    91   40   89 1
    92   41   90 1
    93   42   91 1
    94   43   92 1
@<TRIPOS>MOLECULE
1a2c_ligand_173
   92    94     0     0     0
SMALL
USER_CHARGES

mmff94s_NoEstat = 114.81
@<TRIPOS>ATOM
      1 C1         -8.4879   -2.9369   -1.0341 C.ar      1 <0>        -0.0708
      2 C2         -6.7267   -1.4623   -1.7830 C.ar      1 <0>        -0.0872
      3 C3         -9.3527   -1.8480   -0.9241 C.ar      1 <0>        -0.2241
      4 C4         -7.5915   -0.3735   -1.6730 C.ar      1 <0>        -0.1600
      5 C5         -7.1865   -2.7294   -1.4621 C.ar      1 <0>        -0.1356
      6 C6         -8.9045   -0.5663   -1.2435 C.ar      1 <0>         0.1290
      7 C7         -0.0512   -1.0561    0.2993 C.2       1 <0>         0.6664
      8 C8         -1.8469   -3.0457    2.1630 C.2       1 <0>         0.6651
      9 C9         -4.2799   -3.2353   -0.1780 C.2       1 <0>         0.6454
     10 C10        -4.0116    5.1557   -0.3824 C.cat     1 <0>         0.6349
     11 C11         2.5186   -3.1911    0.6823 C.3       1 <0>        -0.0642
     12 C12         2.4580   -4.6414    0.2376 C.3       1 <0>        -0.0747
     13 C13         1.4874   -1.4827    2.2418 C.3       1 <0>        -0.0873
     14 C14         0.4946   -5.0934    1.7133 C.3       1 <0>        -0.1371
     15 C15         0.0412   -1.4176    1.7503 C.3       1 <0>         0.0360
     16 C16         1.8865   -2.9529    2.0632 C.3       1 <0>        -0.0720
     17 C17         0.5665   -3.7001    2.3454 C.3       1 <0>         0.1201
     18 C18         1.0248   -5.1525    0.2868 C.3       1 <0>         0.1453
     19 C19        -5.5746   -0.7475    1.4860 C.3       1 <0>        -0.0968
     20 C20        -3.7112    0.7464    0.7408 C.3       1 <0>        -0.0986
     21 C21        -6.2505   -3.9084   -1.5819 C.3       1 <0>        -0.0191
     22 C22        -1.2019    2.6554   -0.7648 C.3       1 <0>        -0.1009
     23 C23        -0.8794    1.4488   -1.6540 C.3       1 <0>        -0.0942
     24 C24        -3.2372   -1.0062    2.4788 C.3       1 <0>        -0.0988
     25 C25        -2.5638    3.2498   -1.1169 C.3       1 <0>         0.1966
     26 C26         1.6856    1.6412   -1.5001 C.3       1 <0>         0.1128
     27 C27        -2.8325   -2.1090    1.5076 C.3       1 <0>         0.0786
     28 C28        -5.4811   -4.1668   -0.2823 C.3       1 <0>         0.0744
     29 C29        -4.2955   -0.0321    1.9228 C.3       1 <0>        -0.0678
     30 C30         0.4555    0.7445   -1.3388 C.3       1 <0>         0.1065
     31 N1         -0.4979   -2.7598    1.9615 N.am      1 <0>        -0.4315
     32 N2         -4.2357    6.2444    0.4539 N.pl3     1 <0>        -0.8671
     33 N3         -4.9668    4.8273   -1.3383 N.pl3     1 <0>        -0.8581
     34 N4          0.4455    0.1980   -0.0008 N.am      1 <0>        -0.5687
     35 N5         -3.9193   -2.9688    1.1410 N.am      1 <0>        -0.5746
     36 N6         -2.8388    4.3887   -0.2734 N.pl3     1 <0>        -0.7533
     37 O1         -0.5362   -1.8555   -0.4928 O.2       1 <0>        -0.5843
     38 O2         -2.2659   -3.9924    2.8322 O.2       1 <0>        -0.6812
     39 O3         -3.7165   -2.7712   -1.1667 O.2       1 <0>        -0.5788
     40 O4         -9.7489    0.4960   -1.1377 O.3       1 <0>        -0.4938
     41 O5          0.9879   -6.5072   -0.1510 O.3       1 <0>        -0.6030
     42 O6          2.8639    0.9021   -1.2063 O.3       1 <0>        -0.5860
     43 O7         -5.0067   -5.5055   -0.2851 O.3       1 <0>        -0.6021
     44 H1         -8.8460   -3.9315   -0.7828 H         1 <0>         0.1412
     45 H2         -5.7053   -1.3027   -2.1188 H         1 <0>         0.1451
     46 H3        -10.3743   -2.0047   -0.5891 H         1 <0>         0.1336
     47 H4         -7.2367    0.6226   -1.9242 H         1 <0>         0.1567
     48 H5          3.5627   -2.8549    0.7003 H         1 <0>         0.0649
     49 H6          2.0259   -2.5829   -0.0837 H         1 <0>         0.0476
     50 H7          2.8567   -4.7427   -0.7790 H         1 <0>         0.0641
     51 H8          3.1032   -5.2618    0.8729 H         1 <0>         0.0484
     52 H9          2.1569   -0.7868    1.7257 H         1 <0>         0.0596
     53 H10         1.5124   -1.2395    3.3116 H         1 <0>         0.0757
     54 H11         1.0921   -5.7802    2.3299 H         1 <0>         0.0782
     55 H12        -0.5175   -5.5090    1.7393 H         1 <0>         0.0812
     56 H13        -0.5378   -0.6778    2.3126 H         1 <0>         0.0731
     57 H14         2.6304   -3.2407    2.8169 H         1 <0>         0.0511
     58 H15         0.4523   -3.8218    3.4319 H         1 <0>         0.0753
     59 H16         0.3841   -4.5700   -0.3844 H         1 <0>         0.0427
     60 H17        -6.2768   -0.0422    1.0282 H         1 <0>         0.0450
     61 H18        -6.0867   -1.2049    2.3377 H         1 <0>         0.0406
     62 H19        -5.3599   -1.5330    0.7535 H         1 <0>         0.0274
     63 H20        -3.4369    0.0757   -0.0807 H         1 <0>         0.0476
     64 H21        -4.4352    1.4732    0.3573 H         1 <0>         0.0170
     65 H22        -2.8146    1.2981    1.0427 H         1 <0>         0.0477
     66 H23        -5.5474   -3.7275   -2.4060 H         1 <0>         0.0814
     67 H24        -6.8380   -4.7868   -1.8773 H         1 <0>         0.0685
     68 H25        -1.2036    2.3575    0.2901 H         1 <0>         0.1016
     69 H26        -0.4298    3.4262   -0.8760 H         1 <0>         0.0660
     70 H27        -0.8663    1.7736   -2.7033 H         1 <0>         0.0512
     71 H28        -1.6959    0.7195   -1.5759 H         1 <0>         0.0454
     72 H29        -2.3434   -0.4411    2.7760 H         1 <0>         0.0575
     73 H30        -3.6273   -1.4576    3.4018 H         1 <0>         0.0743
     74 H31        -3.3520    2.5022   -0.9783 H         1 <0>         0.0662
     75 H32        -2.5848    3.5678   -2.1644 H         1 <0>         0.0622
     76 H33         1.6463    2.5133   -0.8391 H         1 <0>         0.0321
     77 H34         1.7645    2.0016   -2.5321 H         1 <0>         0.0204
     78 H35        -2.3687   -1.7253    0.5998 H         1 <0>         0.0749
     79 H36        -6.1196   -4.0302    0.5986 H         1 <0>         0.0719
     80 H37        -4.5575    0.6951    2.7011 H         1 <0>         0.0609
     81 H38         0.5463   -0.0881   -2.0483 H         1 <0>         0.1063
     82 H39        -3.5669    6.5202    1.1680 H         1 <0>         0.4792
     83 H40        -5.0854    6.7983    0.3742 H         1 <0>         0.4819
     84 H41        -4.8350    4.0377   -1.9658 H         1 <0>         0.4802
     85 H42        -5.8222    5.3690   -1.4357 H         1 <0>         0.4826
     86 H43         0.8216    0.7626    0.7549 H         1 <0>         0.3101
     87 H44        -4.4587   -3.4100    1.8874 H         1 <0>         0.3087
     88 H45        -2.1673    4.6753    0.4493 H         1 <0>         0.4846
     89 H46       -10.3777    0.3549   -0.4120 H         1 <0>         0.4194
     90 H47         1.8515   -6.8926    0.0654 H         1 <0>         0.4036
     91 H48         2.9483    0.8828   -0.2393 H         1 <0>         0.4114
     92 H49        -5.5016   -5.9777   -0.9744 H         1 <0>         0.3944
@<TRIPOS>BOND
     1    1    3 ar
     2    1    5 ar
     3    2    4 ar
     4    2    5 ar
     5    3    6 ar
     6    4    6 ar
     7    5   21 1
     8    6   40 1
     9    7   15 1
    10    7   34 am
    11    7   37 2
    12    8   27 1
    13    8   31 am
    14    8   38 2
    15    9   28 1
    16    9   35 am
    17    9   39 2
    18   10   32 1
    19   10   33 1
    20   10   36 1
    21   11   12 1
    22   11   16 1
    23   12   18 1
    24   13   15 1
    25   13   16 1
    26   14   17 1
    27   14   18 1
    28   15   31 1
    29   16   17 1
    30   17   31 1
    31   18   41 1
    32   19   29 1
    33   20   29 1
    34   21   28 1
    35   22   23 1
    36   22   25 1
    37   23   30 1
    38   24   27 1
    39   24   29 1
    40   25   36 1
    41   26   30 1
    42   26   42 1
    43   27   35 1
    44   28   43 1
    45   30   34 1
    46    1   44 1
    47    2   45 1
    48    3   46 1
    49    4   47 1
    50   11   48 1
    51   11   49 1
    52   12   50 1
    53   12   51 1
    54   13   52 1
    55   13   53 1
    56   14   54 1
    57   14   55 1
    58   15   56 1
    59   16   57 1
    60   17   58 1
    61   18   59 1
    62   19   60 1
    63   19   61 1
    64   19   62 1
    65   20   63 1
    66   20   64 1
    67   20   65 1
    68   21   66 1
    69   21   67 1
    70   22   68 1
    71   22   69 1
    72   23   70 1
    73   23   71 1
    74   24   72 1
    75   24   73 1
    76   25   74 1
    77   25   75 1
    78   26   76 1
    79   26   77 1
    80   27   78 1
    81   28   79 1
    82   29   80 1
    83   30   81 1
    84   32   82 1
    85   32   83 1
    86   33   84 1
    87   33   85 1
    88   34   86 1
    89   35   87 1
    90   36   88 1
    91   40   89 1
    92   41   90 1
    93   42   91 1
    94   43   92 1
@<TRIPOS>MOLECULE
1a2c_ligand_174
   92    94     0     0     0
SMALL
USER_CHARGES

mmff94s_NoEstat = 114.84
@<TRIPOS>ATOM
      1 C1         -5.5012   -6.8146   -2.1504 C.ar      1 <0>        -0.0708
      2 C2         -3.4323   -6.5023   -3.3583 C.ar      1 <0>        -0.0872
      3 C3         -5.9204   -7.7389   -3.1072 C.ar      1 <0>        -0.2241
      4 C4         -3.8515   -7.4266   -4.3152 C.ar      1 <0>        -0.1600
      5 C5         -4.2629   -6.2087   -2.2887 C.ar      1 <0>        -0.1356
      6 C6         -5.0955   -8.0449   -4.1897 C.ar      1 <0>         0.1290
      7 C7         -0.0512   -1.0561    0.2993 C.2       1 <0>         0.6664
      8 C8         -1.8469   -3.0457    2.1630 C.2       1 <0>         0.6651
      9 C9         -3.4040   -2.7670   -0.8258 C.2       1 <0>         0.6454
     10 C10         0.1087    6.2839    0.0320 C.cat     1 <0>         0.6349
     11 C11         2.5186   -3.1911    0.6823 C.3       1 <0>        -0.0642
     12 C12         2.4580   -4.6414    0.2376 C.3       1 <0>        -0.0747
     13 C13         1.4874   -1.4827    2.2418 C.3       1 <0>        -0.0873
     14 C14         0.4946   -5.0934    1.7133 C.3       1 <0>        -0.1371
     15 C15         0.0412   -1.4176    1.7503 C.3       1 <0>         0.0360
     16 C16         1.8865   -2.9529    2.0632 C.3       1 <0>        -0.0720
     17 C17         0.5665   -3.7001    2.3454 C.3       1 <0>         0.1201
     18 C18         1.0248   -5.1525    0.2868 C.3       1 <0>         0.1453
     19 C19        -5.7275   -1.2982    0.9287 C.3       1 <0>        -0.0968
     20 C20        -4.2097    0.6462    1.3473 C.3       1 <0>        -0.0986
     21 C21        -3.8088   -5.2086   -1.2523 C.3       1 <0>        -0.0191
     22 C22        -1.0374    2.7415   -0.6235 C.3       1 <0>        -0.1009
     23 C23         0.2513    2.2726   -1.3090 C.3       1 <0>        -0.0942
     24 C24        -3.7699   -1.5150    2.5525 C.3       1 <0>        -0.0988
     25 C25        -1.1758    4.2607   -0.6924 C.3       1 <0>         0.1966
     26 C26         1.7383    0.3016   -2.0469 C.3       1 <0>         0.1128
     27 C27        -2.8325   -2.1090    1.5076 C.3       1 <0>         0.0786
     28 C28        -4.2317   -3.7794   -1.6077 C.3       1 <0>         0.0744
     29 C29        -4.8597   -0.5919    1.9712 C.3       1 <0>        -0.0678
     30 C30         0.4555    0.7445   -1.3388 C.3       1 <0>         0.1065
     31 N1         -0.4979   -2.7598    1.9615 N.am      1 <0>        -0.4315
     32 N2          1.2089    6.8461    0.6711 N.pl3     1 <0>        -0.8671
     33 N3         -0.8437    7.1205   -0.5399 N.pl3     1 <0>        -0.8581
     34 N4          0.4455    0.1980   -0.0008 N.am      1 <0>        -0.5687
     35 N5         -3.5026   -2.9419    0.5527 N.am      1 <0>        -0.5746
     36 N6         -0.0506    4.8893   -0.0421 N.pl3     1 <0>        -0.7533
     37 O1         -0.5362   -1.8555   -0.4928 O.2       1 <0>        -0.5843
     38 O2         -2.2659   -3.9924    2.8322 O.2       1 <0>        -0.6812
     39 O3         -2.7407   -1.8909   -1.3761 O.2       1 <0>        -0.5788
     40 O4         -5.5038   -8.9480   -5.1226 O.3       1 <0>        -0.4938
     41 O5          0.9879   -6.5072   -0.1510 O.3       1 <0>        -0.6030
     42 O6          2.8703    0.8436   -1.3793 O.3       1 <0>        -0.5860
     43 O7         -5.5970   -3.6017   -1.2587 O.3       1 <0>        -0.6021
     44 H1         -6.1508   -6.5826   -1.3107 H         1 <0>         0.1412
     45 H2         -2.4612   -6.0256   -3.4640 H         1 <0>         0.1451
     46 H3         -6.8903   -8.2172   -3.0039 H         1 <0>         0.1336
     47 H4         -3.2039   -7.6615   -5.1558 H         1 <0>         0.1567
     48 H5          3.5627   -2.8549    0.7003 H         1 <0>         0.0649
     49 H6          2.0259   -2.5829   -0.0837 H         1 <0>         0.0476
     50 H7          2.8567   -4.7427   -0.7790 H         1 <0>         0.0641
     51 H8          3.1032   -5.2618    0.8729 H         1 <0>         0.0484
     52 H9          2.1569   -0.7868    1.7257 H         1 <0>         0.0596
     53 H10         1.5124   -1.2395    3.3116 H         1 <0>         0.0757
     54 H11         1.0921   -5.7802    2.3299 H         1 <0>         0.0782
     55 H12        -0.5175   -5.5090    1.7393 H         1 <0>         0.0812
     56 H13        -0.5378   -0.6778    2.3126 H         1 <0>         0.0731
     57 H14         2.6304   -3.2407    2.8169 H         1 <0>         0.0511
     58 H15         0.4523   -3.8218    3.4319 H         1 <0>         0.0753
     59 H16         0.3841   -4.5700   -0.3844 H         1 <0>         0.0427
     60 H17        -6.4424   -0.5993    0.4810 H         1 <0>         0.0450
     61 H18        -6.3080   -2.1101    1.3767 H         1 <0>         0.0406
     62 H19        -5.1167   -1.7184    0.1225 H         1 <0>         0.0274
     63 H20        -3.5507    0.3732    0.5159 H         1 <0>         0.0476
     64 H21        -4.9709    1.3343    0.9644 H         1 <0>         0.0170
     65 H22        -3.6139    1.1889    2.0888 H         1 <0>         0.0477
     66 H23        -2.7165   -5.2642   -1.1527 H         1 <0>         0.0814
     67 H24        -4.2138   -5.5125   -0.2789 H         1 <0>         0.0685
     68 H25        -1.9092    2.2808   -1.1025 H         1 <0>         0.1016
     69 H26        -1.0467    2.4234    0.4259 H         1 <0>         0.0660
     70 H27         1.1110    2.7323   -0.8028 H         1 <0>         0.0512
     71 H28         0.2685    2.6560   -2.3373 H         1 <0>         0.0454
     72 H29        -3.1790   -0.9587    3.2928 H         1 <0>         0.0575
     73 H30        -4.2588   -2.3274    3.1083 H         1 <0>         0.0743
     74 H31        -2.0997    4.5809   -0.1994 H         1 <0>         0.0662
     75 H32        -1.2190    4.5954   -1.7340 H         1 <0>         0.0622
     76 H33         1.7614    0.6251   -3.0928 H         1 <0>         0.0321
     77 H34         1.8289   -0.7905   -2.0281 H         1 <0>         0.0204
     78 H35        -2.2612   -1.3523    0.9714 H         1 <0>         0.0749
     79 H36        -4.1226   -3.5812   -2.6805 H         1 <0>         0.0719
     80 H37        -5.5109   -0.2494    2.7849 H         1 <0>         0.0609
     81 H38        -0.3978    0.3245   -1.8868 H         1 <0>         0.1063
     82 H39         1.9287    6.2742    1.1048 H         1 <0>         0.4792
     83 H40         1.3225    7.8557    0.7245 H         1 <0>         0.4819
     84 H41        -1.6601    6.7429   -1.0146 H         1 <0>         0.4802
     85 H42        -0.7481    8.1323   -0.4992 H         1 <0>         0.4826
     86 H43         0.8216    0.7626    0.7549 H         1 <0>         0.3101
     87 H44        -4.0841   -3.7053    0.9020 H         1 <0>         0.3087
     88 H45         0.6822    4.3187    0.3968 H         1 <0>         0.4846
     89 H46        -6.4681   -8.9121   -5.2259 H         1 <0>         0.4194
     90 H47         1.8515   -6.8926    0.0654 H         1 <0>         0.4036
     91 H48         2.9636    1.7601   -1.6856 H         1 <0>         0.4114
     92 H49        -5.9717   -4.4883   -1.1291 H         1 <0>         0.3944
@<TRIPOS>BOND
     1    1    3 ar
     2    1    5 ar
     3    2    4 ar
     4    2    5 ar
     5    3    6 ar
     6    4    6 ar
     7    5   21 1
     8    6   40 1
     9    7   15 1
    10    7   34 am
    11    7   37 2
    12    8   27 1
    13    8   31 am
    14    8   38 2
    15    9   28 1
    16    9   35 am
    17    9   39 2
    18   10   32 1
    19   10   33 1
    20   10   36 1
    21   11   12 1
    22   11   16 1
    23   12   18 1
    24   13   15 1
    25   13   16 1
    26   14   17 1
    27   14   18 1
    28   15   31 1
    29   16   17 1
    30   17   31 1
    31   18   41 1
    32   19   29 1
    33   20   29 1
    34   21   28 1
    35   22   23 1
    36   22   25 1
    37   23   30 1
    38   24   27 1
    39   24   29 1
    40   25   36 1
    41   26   30 1
    42   26   42 1
    43   27   35 1
    44   28   43 1
    45   30   34 1
    46    1   44 1
    47    2   45 1
    48    3   46 1
    49    4   47 1
    50   11   48 1
    51   11   49 1
    52   12   50 1
    53   12   51 1
    54   13   52 1
    55   13   53 1
    56   14   54 1
    57   14   55 1
    58   15   56 1
    59   16   57 1
    60   17   58 1
    61   18   59 1
    62   19   60 1
    63   19   61 1
    64   19   62 1
    65   20   63 1
    66   20   64 1
    67   20   65 1
    68   21   66 1
    69   21   67 1
    70   22   68 1
    71   22   69 1
    72   23   70 1
    73   23   71 1
    74   24   72 1
    75   24   73 1
    76   25   74 1
    77   25   75 1
    78   26   76 1
    79   26   77 1
    80   27   78 1
    81   28   79 1
    82   29   80 1
    83   30   81 1
    84   32   82 1
    85   32   83 1
    86   33   84 1
    87   33   85 1
    88   34   86 1
    89   35   87 1
    90   36   88 1
    91   40   89 1
    92   41   90 1
    93   42   91 1
    94   43   92 1
@<TRIPOS>MOLECULE
1a2c_ligand_175
   92    94     0     0     0
SMALL
USER_CHARGES

mmff94s_NoEstat = 114.86
@<TRIPOS>ATOM
      1 C1          9.1194    0.3522    5.3691 C.ar      1 <0>        -0.0708
      2 C2          7.5116    1.9345    4.5040 C.ar      1 <0>        -0.0872
      3 C3         10.1172    1.3238    5.2919 C.ar      1 <0>        -0.2241
      4 C4          8.5094    2.9061    4.4268 C.ar      1 <0>        -0.1600
      5 C5          7.8301    0.6705    4.9742 C.ar      1 <0>        -0.1356
      6 C6          9.8122    2.6008    4.8207 C.ar      1 <0>         0.1290
      7 C7          0.1755   -1.0766    0.1327 C.2       1 <0>         0.6664
      8 C8          2.3785   -0.9757    2.2764 C.2       1 <0>         0.6651
      9 C9          5.2968   -1.9145    3.7000 C.2       1 <0>         0.6454
     10 C10         0.3443    5.9186   -0.4394 C.cat     1 <0>         0.6349
     11 C11         2.4521   -5.3069   -0.2561 C.3       1 <0>        -0.0642
     12 C12         1.2413   -5.9691    0.3982 C.3       1 <0>        -0.0747
     13 C13         1.5734   -2.9393   -0.7647 C.3       1 <0>        -0.0873
     14 C14         1.0938   -4.1277    2.1072 C.3       1 <0>        -0.1371
     15 C15         1.5650   -1.6216    0.0133 C.3       1 <0>         0.0360
     16 C16         2.5597   -3.8106    0.0203 C.3       1 <0>        -0.0720
     17 C17         2.2934   -3.4012    1.4755 C.3       1 <0>         0.1201
     18 C18         1.1411   -5.6363    1.8853 C.3       1 <0>         0.1453
     19 C19         3.8896   -0.8379    6.4377 C.3       1 <0>        -0.0968
     20 C20         2.2599   -2.7349    6.3694 C.3       1 <0>        -0.0986
     21 C21         6.7497   -0.3812    5.0585 C.3       1 <0>        -0.0191
     22 C22        -0.6430    2.4326    0.6399 C.3       1 <0>        -0.1009
     23 C23        -1.2979    2.0260   -0.6854 C.3       1 <0>        -0.0942
     24 C24         1.9925   -0.8489    4.7298 C.3       1 <0>        -0.0988
     25 C25        -0.5996    3.9518    0.7888 C.3       1 <0>         0.1966
     26 C26        -2.1127    0.1273   -2.2253 C.3       1 <0>         0.1128
     27 C27         2.8496   -1.4560    3.6253 C.3       1 <0>         0.0786
     28 C28         6.6400   -1.1984    3.7670 C.3       1 <0>         0.0744
     29 C29         2.4383   -1.2292    6.1562 C.3       1 <0>        -0.0678
     30 C30        -1.4370    0.5062   -0.9051 C.3       1 <0>         0.1065
     31 N1          2.0322   -1.9586    1.3590 N.am      1 <0>        -0.4315
     32 N2          1.0795    6.4347   -1.5015 N.pl3     1 <0>        -0.8671
     33 N3         -0.2072    6.7924    0.4913 N.pl3     1 <0>        -0.8581
     34 N4         -0.1481   -0.1440   -0.8342 N.am      1 <0>        -0.5687
     35 N5          4.2184   -1.0331    3.6724 N.am      1 <0>        -0.5746
     36 N6          0.1533    4.5333   -0.2970 N.pl3     1 <0>        -0.7533
     37 O1         -0.5534   -1.4727    1.0347 O.2       1 <0>        -0.5843
     38 O2          2.3230    0.2335    2.0409 O.2       1 <0>        -0.6812
     39 O3          5.2019   -3.1398    3.6875 O.2       1 <0>        -0.5788
     40 O4         10.7855    3.5494    4.7469 O.3       1 <0>        -0.4938
     41 O5          2.2611   -6.1715    2.5852 O.3       1 <0>        -0.6030
     42 O6         -1.3491    0.6212   -3.3179 O.3       1 <0>        -0.5860
     43 O7          7.6677   -2.1787    3.7522 O.3       1 <0>        -0.6021
     44 H1          9.3666   -0.6398    5.7373 H         1 <0>         0.1412
     45 H2          6.4992    2.1814    4.1952 H         1 <0>         0.1451
     46 H3         11.1300    1.0799    5.6003 H         1 <0>         0.1336
     47 H4          8.2654    3.8995    4.0597 H         1 <0>         0.1567
     48 H5          3.3605   -5.7937    0.1218 H         1 <0>         0.0649
     49 H6          2.4319   -5.4897   -1.3370 H         1 <0>         0.0476
     50 H7          0.3241   -5.6545   -0.1129 H         1 <0>         0.0641
     51 H8          1.3294   -7.0545    0.2691 H         1 <0>         0.0484
     52 H9          0.5754   -3.3919   -0.8000 H         1 <0>         0.0596
     53 H10         1.8977   -2.7914   -1.8003 H         1 <0>         0.0757
     54 H11         1.0807   -3.9085    3.1823 H         1 <0>         0.0782
     55 H12         0.1523   -3.7376    1.7002 H         1 <0>         0.0812
     56 H13         2.2202   -0.8626   -0.4249 H         1 <0>         0.0731
     57 H14         3.5726   -3.4842   -0.2571 H         1 <0>         0.0511
     58 H15         3.1875   -3.5701    2.0864 H         1 <0>         0.0753
     59 H16         0.2435   -6.1003    2.3075 H         1 <0>         0.0427
     60 H17         4.2001   -1.1859    7.4289 H         1 <0>         0.0450
     61 H18         4.0203    0.2482    6.4220 H         1 <0>         0.0406
     62 H19         4.5693   -1.2752    5.6986 H         1 <0>         0.0274
     63 H20         2.8852   -3.3113    5.6789 H         1 <0>         0.0476
     64 H21         2.5335   -3.0185    7.3913 H         1 <0>         0.0170
     65 H22         1.2173   -3.0301    6.2104 H         1 <0>         0.0477
     66 H23         5.7901    0.1053    5.2788 H         1 <0>         0.0814
     67 H24         6.9627   -1.0264    5.9201 H         1 <0>         0.0685
     68 H25        -1.1995    2.0063    1.4826 H         1 <0>         0.1016
     69 H26         0.3766    2.0329    0.6979 H         1 <0>         0.0660
     70 H27        -0.7150    2.4492   -1.5148 H         1 <0>         0.0512
     71 H28        -2.2909    2.4892   -0.7497 H         1 <0>         0.0454
     72 H29         0.9469   -1.1516    4.5828 H         1 <0>         0.0575
     73 H30         2.0032    0.2464    4.6399 H         1 <0>         0.0743
     74 H31        -0.1297    4.2271    1.7389 H         1 <0>         0.0662
     75 H32        -1.6126    4.3671    0.7838 H         1 <0>         0.0622
     76 H33        -3.1276    0.5322   -2.2969 H         1 <0>         0.0321
     77 H34        -2.1750   -0.9624   -2.3250 H         1 <0>         0.0204
     78 H35         2.8203   -2.5449    3.6159 H         1 <0>         0.0749
     79 H36         6.7551   -0.5663    2.8785 H         1 <0>         0.0719
     80 H37         1.7968   -0.7138    6.8816 H         1 <0>         0.0609
     81 H38        -2.0581    0.1260   -0.0837 H         1 <0>         0.1063
     82 H39         1.5025    5.8345   -2.2044 H         1 <0>         0.4792
     83 H40         1.2174    7.4376   -1.6029 H         1 <0>         0.4819
     84 H41        -0.7502    6.4489    1.2798 H         1 <0>         0.4802
     85 H42        -0.0827    7.7984    0.4073 H         1 <0>         0.4826
     86 H43         0.5534    0.0962   -1.5282 H         1 <0>         0.3101
     87 H44         4.4137   -0.0309    3.6864 H         1 <0>         0.3087
     88 H45         0.5822    3.9340   -1.0126 H         1 <0>         0.4846
     89 H46        11.6422    3.1378    4.5506 H         1 <0>         0.4194
     90 H47         2.7873   -5.4145    2.8873 H         1 <0>         0.4036
     91 H48        -1.5776    1.5595   -3.4176 H         1 <0>         0.4114
     92 H49         8.3173   -1.9150    4.4243 H         1 <0>         0.3944
@<TRIPOS>BOND
     1    1    3 ar
     2    1    5 ar
     3    2    4 ar
     4    2    5 ar
     5    3    6 ar
     6    4    6 ar
     7    5   21 1
     8    6   40 1
     9    7   15 1
    10    7   34 am
    11    7   37 2
    12    8   27 1
    13    8   31 am
    14    8   38 2
    15    9   28 1
    16    9   35 am
    17    9   39 2
    18   10   32 1
    19   10   33 1
    20   10   36 1
    21   11   12 1
    22   11   16 1
    23   12   18 1
    24   13   15 1
    25   13   16 1
    26   14   17 1
    27   14   18 1
    28   15   31 1
    29   16   17 1
    30   17   31 1
    31   18   41 1
    32   19   29 1
    33   20   29 1
    34   21   28 1
    35   22   23 1
    36   22   25 1
    37   23   30 1
    38   24   27 1
    39   24   29 1
    40   25   36 1
    41   26   30 1
    42   26   42 1
    43   27   35 1
    44   28   43 1
    45   30   34 1
    46    1   44 1
    47    2   45 1
    48    3   46 1
    49    4   47 1
    50   11   48 1
    51   11   49 1
    52   12   50 1
    53   12   51 1
    54   13   52 1
    55   13   53 1
    56   14   54 1
    57   14   55 1
    58   15   56 1
    59   16   57 1
    60   17   58 1
    61   18   59 1
    62   19   60 1
    63   19   61 1
    64   19   62 1
    65   20   63 1
    66   20   64 1
    67   20   65 1
    68   21   66 1
    69   21   67 1
    70   22   68 1
    71   22   69 1
    72   23   70 1
    73   23   71 1
    74   24   72 1
    75   24   73 1
    76   25   74 1
    77   25   75 1
    78   26   76 1
    79   26   77 1
    80   27   78 1
    81   28   79 1
    82   29   80 1
    83   30   81 1
    84   32   82 1
    85   32   83 1
    86   33   84 1
    87   33   85 1
    88   34   86 1
    89   35   87 1
    90   36   88 1
    91   40   89 1
    92   41   90 1
    93   42   91 1
    94   43   92 1
@<TRIPOS>MOLECULE
1a2c_ligand_176
   92    94     0     0     0
SMALL
USER_CHARGES

mmff94s_NoEstat = 114.86
@<TRIPOS>ATOM
      1 C1         -6.2055   -4.7113   -4.1285 C.ar      1 <0>        -0.0708
      2 C2         -7.5012   -4.0778   -2.1902 C.ar      1 <0>        -0.0872
      3 C3         -7.2346   -5.5584   -4.5396 C.ar      1 <0>        -0.2241
      4 C4         -8.5303   -4.9249   -2.6013 C.ar      1 <0>        -0.1600
      5 C5         -6.3526   -3.9823   -2.9594 C.ar      1 <0>        -0.1356
      6 C6         -8.3970   -5.6653   -3.7760 C.ar      1 <0>         0.1290
      7 C7         -0.0512   -1.0561    0.2993 C.2       1 <0>         0.6664
      8 C8         -1.8469   -3.0457    2.1630 C.2       1 <0>         0.6651
      9 C9         -3.4040   -2.7670   -0.8258 C.2       1 <0>         0.6454
     10 C10        -3.5405    4.7012   -2.3068 C.cat     1 <0>         0.6349
     11 C11         2.5186   -3.1911    0.6823 C.3       1 <0>        -0.0642
     12 C12         2.4580   -4.6414    0.2376 C.3       1 <0>        -0.0747
     13 C13         1.4874   -1.4827    2.2418 C.3       1 <0>        -0.0873
     14 C14         0.4946   -5.0934    1.7133 C.3       1 <0>        -0.1371
     15 C15         0.0412   -1.4176    1.7503 C.3       1 <0>         0.0360
     16 C16         1.8865   -2.9529    2.0632 C.3       1 <0>        -0.0720
     17 C17         0.5665   -3.7001    2.3454 C.3       1 <0>         0.1201
     18 C18         1.0248   -5.1525    0.2868 C.3       1 <0>         0.1453
     19 C19        -5.7275   -1.2982    0.9287 C.3       1 <0>        -0.0968
     20 C20        -4.2097    0.6462    1.3473 C.3       1 <0>        -0.0986
     21 C21        -5.2387   -3.0647   -2.5148 C.3       1 <0>        -0.0191
     22 C22        -0.9951    2.0137   -3.0747 C.3       1 <0>        -0.1009
     23 C23        -0.8794    1.4488   -1.6540 C.3       1 <0>        -0.0942
     24 C24        -3.7699   -1.5150    2.5525 C.3       1 <0>        -0.0988
     25 C25        -2.3255    2.7368   -3.2725 C.3       1 <0>         0.1966
     26 C26         1.6856    1.6412   -1.5001 C.3       1 <0>         0.1128
     27 C27        -2.8325   -2.1090    1.5076 C.3       1 <0>         0.0786
     28 C28        -4.2317   -3.7794   -1.6077 C.3       1 <0>         0.0744
     29 C29        -4.8597   -0.5919    1.9712 C.3       1 <0>        -0.0678
     30 C30         0.4555    0.7445   -1.3388 C.3       1 <0>         0.1065
     31 N1         -0.4979   -2.7598    1.9615 N.am      1 <0>        -0.4315
     32 N2         -3.6018    5.7482   -1.3930 N.pl3     1 <0>        -0.8671
     33 N3         -4.5951    4.5128   -3.1936 N.pl3     1 <0>        -0.8581
     34 N4          0.4455    0.1980   -0.0008 N.am      1 <0>        -0.5687
     35 N5         -3.5026   -2.9419    0.5527 N.am      1 <0>        -0.5746
     36 N6         -2.4324    3.8372   -2.3442 N.pl3     1 <0>        -0.7533
     37 O1         -0.5362   -1.8555   -0.4928 O.2       1 <0>        -0.5843
     38 O2         -2.2659   -3.9924    2.8322 O.2       1 <0>        -0.6812
     39 O3         -2.7407   -1.8909   -1.3761 O.2       1 <0>        -0.5788
     40 O4         -9.4019   -6.4907   -4.1779 O.3       1 <0>        -0.4938
     41 O5          0.9879   -6.5072   -0.1510 O.3       1 <0>        -0.6030
     42 O6          1.5971    2.7470   -0.6113 O.3       1 <0>        -0.5860
     43 O7         -3.3494   -4.5480   -2.4129 O.3       1 <0>        -0.6021
     44 H1         -5.3037   -4.6348   -4.7299 H         1 <0>         0.1412
     45 H2         -7.6139   -3.5046   -1.2737 H         1 <0>         0.1451
     46 H3         -7.1248   -6.1323   -5.4555 H         1 <0>         0.1336
     47 H4         -9.4339   -5.0032   -2.0025 H         1 <0>         0.1567
     48 H5          3.5627   -2.8549    0.7003 H         1 <0>         0.0649
     49 H6          2.0259   -2.5829   -0.0837 H         1 <0>         0.0476
     50 H7          2.8567   -4.7427   -0.7790 H         1 <0>         0.0641
     51 H8          3.1032   -5.2618    0.8729 H         1 <0>         0.0484
     52 H9          2.1569   -0.7868    1.7257 H         1 <0>         0.0596
     53 H10         1.5124   -1.2395    3.3116 H         1 <0>         0.0757
     54 H11         1.0921   -5.7802    2.3299 H         1 <0>         0.0782
     55 H12        -0.5175   -5.5090    1.7393 H         1 <0>         0.0812
     56 H13        -0.5378   -0.6778    2.3126 H         1 <0>         0.0731
     57 H14         2.6304   -3.2407    2.8169 H         1 <0>         0.0511
     58 H15         0.4523   -3.8218    3.4319 H         1 <0>         0.0753
     59 H16         0.3841   -4.5700   -0.3844 H         1 <0>         0.0427
     60 H17        -6.4424   -0.5993    0.4810 H         1 <0>         0.0450
     61 H18        -6.3080   -2.1101    1.3767 H         1 <0>         0.0406
     62 H19        -5.1167   -1.7184    0.1225 H         1 <0>         0.0274
     63 H20        -3.5507    0.3732    0.5159 H         1 <0>         0.0476
     64 H21        -4.9709    1.3343    0.9644 H         1 <0>         0.0170
     65 H22        -3.6139    1.1889    2.0888 H         1 <0>         0.0477
     66 H23        -5.6709   -2.2016   -1.9909 H         1 <0>         0.0814
     67 H24        -4.7494   -2.6577   -3.4086 H         1 <0>         0.0685
     68 H25        -0.1747    2.7139   -3.2707 H         1 <0>         0.1016
     69 H26        -0.9072    1.2071   -3.8124 H         1 <0>         0.0660
     70 H27        -1.7000    0.7382   -1.4859 H         1 <0>         0.0512
     71 H28        -1.0340    2.2618   -0.9330 H         1 <0>         0.0454
     72 H29        -3.1790   -0.9587    3.2928 H         1 <0>         0.0575
     73 H30        -4.2588   -2.3274    3.1083 H         1 <0>         0.0743
     74 H31        -3.1606    2.0474   -3.1093 H         1 <0>         0.0662
     75 H32        -2.4046    3.1224   -4.2942 H         1 <0>         0.0622
     76 H33         1.7842    2.0214   -2.5223 H         1 <0>         0.0321
     77 H34         2.5988    1.0866   -1.2555 H         1 <0>         0.0204
     78 H35        -2.2612   -1.3523    0.9714 H         1 <0>         0.0749
     79 H36        -4.7315   -4.4554   -0.9038 H         1 <0>         0.0719
     80 H37        -5.5109   -0.2494    2.7849 H         1 <0>         0.0609
     81 H38         0.5463   -0.0881   -2.0483 H         1 <0>         0.1063
     82 H39        -2.8558    5.9229   -0.7250 H         1 <0>         0.4792
     83 H40        -4.4048    6.3724   -1.3667 H         1 <0>         0.4819
     84 H41        -4.5828    3.7574   -3.8745 H         1 <0>         0.4802
     85 H42        -5.4062    5.1266   -3.1851 H         1 <0>         0.4826
     86 H43         0.8216    0.7626    0.7549 H         1 <0>         0.3101
     87 H44        -4.0841   -3.7053    0.9020 H         1 <0>         0.3087
     88 H45        -1.6822    4.0219   -1.6673 H         1 <0>         0.4846
     89 H46        -9.0385   -7.2616   -4.6422 H         1 <0>         0.4194
     90 H47         1.8515   -6.8926    0.0654 H         1 <0>         0.4036
     91 H48         1.0115    3.3975   -1.0313 H         1 <0>         0.4114
     92 H49        -3.7637   -4.6264   -3.2877 H         1 <0>         0.3944
@<TRIPOS>BOND
     1    1    3 ar
     2    1    5 ar
     3    2    4 ar
     4    2    5 ar
     5    3    6 ar
     6    4    6 ar
     7    5   21 1
     8    6   40 1
     9    7   15 1
    10    7   34 am
    11    7   37 2
    12    8   27 1
    13    8   31 am
    14    8   38 2
    15    9   28 1
    16    9   35 am
    17    9   39 2
    18   10   32 1
    19   10   33 1
    20   10   36 1
    21   11   12 1
    22   11   16 1
    23   12   18 1
    24   13   15 1
    25   13   16 1
    26   14   17 1
    27   14   18 1
    28   15   31 1
    29   16   17 1
    30   17   31 1
    31   18   41 1
    32   19   29 1
    33   20   29 1
    34   21   28 1
    35   22   23 1
    36   22   25 1
    37   23   30 1
    38   24   27 1
    39   24   29 1
    40   25   36 1
    41   26   30 1
    42   26   42 1
    43   27   35 1
    44   28   43 1
    45   30   34 1
    46    1   44 1
    47    2   45 1
    48    3   46 1
    49    4   47 1
    50   11   48 1
    51   11   49 1
    52   12   50 1
    53   12   51 1
    54   13   52 1
    55   13   53 1
    56   14   54 1
    57   14   55 1
    58   15   56 1
    59   16   57 1
    60   17   58 1
    61   18   59 1
    62   19   60 1
    63   19   61 1
    64   19   62 1
    65   20   63 1
    66   20   64 1
    67   20   65 1
    68   21   66 1
    69   21   67 1
    70   22   68 1
    71   22   69 1
    72   23   70 1
    73   23   71 1
    74   24   72 1
    75   24   73 1
    76   25   74 1
    77   25   75 1
    78   26   76 1
    79   26   77 1
    80   27   78 1
    81   28   79 1
    82   29   80 1
    83   30   81 1
    84   32   82 1
    85   32   83 1
    86   33   84 1
    87   33   85 1
    88   34   86 1
    89   35   87 1
    90   36   88 1
    91   40   89 1
    92   41   90 1
    93   42   91 1
    94   43   92 1
@<TRIPOS>MOLECULE
1a2c_ligand_177
   92    94     0     0     0
SMALL
USER_CHARGES

mmff94s_NoEstat = 114.94
@<TRIPOS>ATOM
      1 C1         -6.2055   -4.7113   -4.1285 C.ar      1 <0>        -0.0708
      2 C2         -7.5012   -4.0778   -2.1902 C.ar      1 <0>        -0.0872
      3 C3         -7.2346   -5.5584   -4.5396 C.ar      1 <0>        -0.2241
      4 C4         -8.5303   -4.9249   -2.6013 C.ar      1 <0>        -0.1600
      5 C5         -6.3526   -3.9823   -2.9594 C.ar      1 <0>        -0.1356
      6 C6         -8.3970   -5.6653   -3.7760 C.ar      1 <0>         0.1290
      7 C7         -0.0512   -1.0561    0.2993 C.2       1 <0>         0.6664
      8 C8         -1.8469   -3.0457    2.1630 C.2       1 <0>         0.6651
      9 C9         -3.4040   -2.7670   -0.8258 C.2       1 <0>         0.6454
     10 C10        -2.2286    5.6121   -4.4097 C.cat     1 <0>         0.6349
     11 C11         2.5186   -3.1911    0.6823 C.3       1 <0>        -0.0642
     12 C12         2.4580   -4.6414    0.2376 C.3       1 <0>        -0.0747
     13 C13         1.4874   -1.4827    2.2418 C.3       1 <0>        -0.0873
     14 C14         0.4946   -5.0934    1.7133 C.3       1 <0>        -0.1371
     15 C15         0.0412   -1.4176    1.7503 C.3       1 <0>         0.0360
     16 C16         1.8865   -2.9529    2.0632 C.3       1 <0>        -0.0720
     17 C17         0.5665   -3.7001    2.3454 C.3       1 <0>         0.1201
     18 C18         1.0248   -5.1525    0.2868 C.3       1 <0>         0.1453
     19 C19        -5.7275   -1.2982    0.9287 C.3       1 <0>        -0.0968
     20 C20        -4.2097    0.6462    1.3473 C.3       1 <0>        -0.0986
     21 C21        -5.2387   -3.0647   -2.5148 C.3       1 <0>        -0.0191
     22 C22        -0.5396    2.6263   -2.8210 C.3       1 <0>        -0.1009
     23 C23        -0.4337    2.0012   -1.4250 C.3       1 <0>        -0.0942
     24 C24        -3.7699   -1.5150    2.5525 C.3       1 <0>        -0.0988
     25 C25        -1.3940    3.8917   -2.7937 C.3       1 <0>         0.1966
     26 C26         1.9058    0.9774   -1.7696 C.3       1 <0>         0.1128
     27 C27        -2.8325   -2.1090    1.5076 C.3       1 <0>         0.0786
     28 C28        -4.2317   -3.7794   -1.6077 C.3       1 <0>         0.0744
     29 C29        -4.8597   -0.5919    1.9712 C.3       1 <0>        -0.0678
     30 C30         0.4555    0.7445   -1.3388 C.3       1 <0>         0.1065
     31 N1         -0.4979   -2.7598    1.9615 N.am      1 <0>        -0.4315
     32 N2         -2.2873    6.1203   -5.7033 N.pl3     1 <0>        -0.8671
     33 N3         -2.9177    6.2646   -3.3932 N.pl3     1 <0>        -0.8581
     34 N4          0.4455    0.1980   -0.0008 N.am      1 <0>        -0.5687
     35 N5         -3.5026   -2.9419    0.5527 N.am      1 <0>        -0.5746
     36 N6         -1.4860    4.4544   -4.1200 N.pl3     1 <0>        -0.7533
     37 O1         -0.5362   -1.8555   -0.4928 O.2       1 <0>        -0.5843
     38 O2         -2.2659   -3.9924    2.8322 O.2       1 <0>        -0.6812
     39 O3         -2.7407   -1.8909   -1.3761 O.2       1 <0>        -0.5788
     40 O4         -9.4019   -6.4907   -4.1779 O.3       1 <0>        -0.4938
     41 O5          0.9879   -6.5072   -0.1510 O.3       1 <0>        -0.6030
     42 O6          2.6391   -0.2366   -1.6731 O.3       1 <0>        -0.5860
     43 O7         -3.3494   -4.5480   -2.4129 O.3       1 <0>        -0.6021
     44 H1         -5.3037   -4.6348   -4.7299 H         1 <0>         0.1412
     45 H2         -7.6139   -3.5046   -1.2737 H         1 <0>         0.1451
     46 H3         -7.1248   -6.1323   -5.4555 H         1 <0>         0.1336
     47 H4         -9.4339   -5.0032   -2.0025 H         1 <0>         0.1567
     48 H5          3.5627   -2.8549    0.7003 H         1 <0>         0.0649
     49 H6          2.0259   -2.5829   -0.0837 H         1 <0>         0.0476
     50 H7          2.8567   -4.7427   -0.7790 H         1 <0>         0.0641
     51 H8          3.1032   -5.2618    0.8729 H         1 <0>         0.0484
     52 H9          2.1569   -0.7868    1.7257 H         1 <0>         0.0596
     53 H10         1.5124   -1.2395    3.3116 H         1 <0>         0.0757
     54 H11         1.0921   -5.7802    2.3299 H         1 <0>         0.0782
     55 H12        -0.5175   -5.5090    1.7393 H         1 <0>         0.0812
     56 H13        -0.5378   -0.6778    2.3126 H         1 <0>         0.0731
     57 H14         2.6304   -3.2407    2.8169 H         1 <0>         0.0511
     58 H15         0.4523   -3.8218    3.4319 H         1 <0>         0.0753
     59 H16         0.3841   -4.5700   -0.3844 H         1 <0>         0.0427
     60 H17        -6.4424   -0.5993    0.4810 H         1 <0>         0.0450
     61 H18        -6.3080   -2.1101    1.3767 H         1 <0>         0.0406
     62 H19        -5.1167   -1.7184    0.1225 H         1 <0>         0.0274
     63 H20        -3.5507    0.3732    0.5159 H         1 <0>         0.0476
     64 H21        -4.9709    1.3343    0.9644 H         1 <0>         0.0170
     65 H22        -3.6139    1.1889    2.0888 H         1 <0>         0.0477
     66 H23        -5.6709   -2.2016   -1.9909 H         1 <0>         0.0814
     67 H24        -4.7494   -2.6577   -3.4086 H         1 <0>         0.0685
     68 H25         0.4583    2.8766   -3.1995 H         1 <0>         0.1016
     69 H26        -0.9760    1.9088   -3.5262 H         1 <0>         0.0660
     70 H27        -1.4419    1.7433   -1.0734 H         1 <0>         0.0512
     71 H28        -0.0553    2.7561   -0.7237 H         1 <0>         0.0454
     72 H29        -3.1790   -0.9587    3.2928 H         1 <0>         0.0575
     73 H30        -4.2588   -2.3274    3.1083 H         1 <0>         0.0743
     74 H31        -0.9532    4.6334   -2.1192 H         1 <0>         0.0662
     75 H32        -2.4021    3.6665   -2.4305 H         1 <0>         0.0622
     76 H33         2.4001    1.7344   -1.1517 H         1 <0>         0.0321
     77 H34         1.9468    1.3120   -2.8125 H         1 <0>         0.0204
     78 H35        -2.2612   -1.3523    0.9714 H         1 <0>         0.0749
     79 H36        -4.7315   -4.4554   -0.9038 H         1 <0>         0.0719
     80 H37        -5.5109   -0.2494    2.7849 H         1 <0>         0.0609
     81 H38         0.0149    0.0012   -2.0158 H         1 <0>         0.1063
     82 H39        -1.7984    5.6781   -6.4771 H         1 <0>         0.4792
     83 H40        -2.8247    6.9587   -5.9114 H         1 <0>         0.4819
     84 H41        -2.8962    5.9203   -2.4364 H         1 <0>         0.4802
     85 H42        -3.4623    7.1032   -3.5802 H         1 <0>         0.4826
     86 H43         0.8216    0.7626    0.7549 H         1 <0>         0.3101
     87 H44        -4.0841   -3.7053    0.9020 H         1 <0>         0.3087
     88 H45        -0.9968    4.0126   -4.9078 H         1 <0>         0.4846
     89 H46        -9.0385   -7.2616   -4.6422 H         1 <0>         0.4194
     90 H47         1.8515   -6.8926    0.0654 H         1 <0>         0.4036
     91 H48         2.8853   -0.3414   -0.7399 H         1 <0>         0.4114
     92 H49        -3.7637   -4.6264   -3.2877 H         1 <0>         0.3944
@<TRIPOS>BOND
     1    1    3 ar
     2    1    5 ar
     3    2    4 ar
     4    2    5 ar
     5    3    6 ar
     6    4    6 ar
     7    5   21 1
     8    6   40 1
     9    7   15 1
    10    7   34 am
    11    7   37 2
    12    8   27 1
    13    8   31 am
    14    8   38 2
    15    9   28 1
    16    9   35 am
    17    9   39 2
    18   10   32 1
    19   10   33 1
    20   10   36 1
    21   11   12 1
    22   11   16 1
    23   12   18 1
    24   13   15 1
    25   13   16 1
    26   14   17 1
    27   14   18 1
    28   15   31 1
    29   16   17 1
    30   17   31 1
    31   18   41 1
    32   19   29 1
    33   20   29 1
    34   21   28 1
    35   22   23 1
    36   22   25 1
    37   23   30 1
    38   24   27 1
    39   24   29 1
    40   25   36 1
    41   26   30 1
    42   26   42 1
    43   27   35 1
    44   28   43 1
    45   30   34 1
    46    1   44 1
    47    2   45 1
    48    3   46 1
    49    4   47 1
    50   11   48 1
    51   11   49 1
    52   12   50 1
    53   12   51 1
    54   13   52 1
    55   13   53 1
    56   14   54 1
    57   14   55 1
    58   15   56 1
    59   16   57 1
    60   17   58 1
    61   18   59 1
    62   19   60 1
    63   19   61 1
    64   19   62 1
    65   20   63 1
    66   20   64 1
    67   20   65 1
    68   21   66 1
    69   21   67 1
    70   22   68 1
    71   22   69 1
    72   23   70 1
    73   23   71 1
    74   24   72 1
    75   24   73 1
    76   25   74 1
    77   25   75 1
    78   26   76 1
    79   26   77 1
    80   27   78 1
    81   28   79 1
    82   29   80 1
    83   30   81 1
    84   32   82 1
    85   32   83 1
    86   33   84 1
    87   33   85 1
    88   34   86 1
    89   35   87 1
    90   36   88 1
    91   40   89 1
    92   41   90 1
    93   42   91 1
    94   43   92 1
@<TRIPOS>MOLECULE
1a2c_ligand_178
   92    94     0     0     0
SMALL
USER_CHARGES

mmff94s_NoEstat = 115.00
@<TRIPOS>ATOM
      1 C1         -5.5012   -6.8146   -2.1504 C.ar      1 <0>        -0.0708
      2 C2         -3.4323   -6.5023   -3.3583 C.ar      1 <0>        -0.0872
      3 C3         -5.9204   -7.7389   -3.1072 C.ar      1 <0>        -0.2241
      4 C4         -3.8515   -7.4266   -4.3152 C.ar      1 <0>        -0.1600
      5 C5         -4.2629   -6.2087   -2.2887 C.ar      1 <0>        -0.1356
      6 C6         -5.0955   -8.0449   -4.1897 C.ar      1 <0>         0.1290
      7 C7         -0.0512   -1.0561    0.2993 C.2       1 <0>         0.6664
      8 C8         -1.8469   -3.0457    2.1630 C.2       1 <0>         0.6651
      9 C9         -3.4040   -2.7670   -0.8258 C.2       1 <0>         0.6454
     10 C10        -4.7698    2.2135   -3.1337 C.cat     1 <0>         0.6349
     11 C11         2.5186   -3.1911    0.6823 C.3       1 <0>        -0.0642
     12 C12         2.4580   -4.6414    0.2376 C.3       1 <0>        -0.0747
     13 C13         1.4874   -1.4827    2.2418 C.3       1 <0>        -0.0873
     14 C14         0.4946   -5.0934    1.7133 C.3       1 <0>        -0.1371
     15 C15         0.0412   -1.4176    1.7503 C.3       1 <0>         0.0360
     16 C16         1.8865   -2.9529    2.0632 C.3       1 <0>        -0.0720
     17 C17         0.5665   -3.7001    2.3454 C.3       1 <0>         0.1201
     18 C18         1.0248   -5.1525    0.2868 C.3       1 <0>         0.1453
     19 C19        -5.7275   -1.2982    0.9287 C.3       1 <0>        -0.0968
     20 C20        -4.2097    0.6462    1.3473 C.3       1 <0>        -0.0986
     21 C21        -3.8088   -5.2086   -1.2523 C.3       1 <0>        -0.0191
     22 C22        -0.9951    2.0137   -3.0747 C.3       1 <0>        -0.1009
     23 C23        -0.8794    1.4488   -1.6540 C.3       1 <0>        -0.0942
     24 C24        -3.7699   -1.5150    2.5525 C.3       1 <0>        -0.0988
     25 C25        -2.3255    2.7368   -3.2725 C.3       1 <0>         0.1966
     26 C26         1.6856    1.6412   -1.5001 C.3       1 <0>         0.1128
     27 C27        -2.8325   -2.1090    1.5076 C.3       1 <0>         0.0786
     28 C28        -4.2317   -3.7794   -1.6077 C.3       1 <0>         0.0744
     29 C29        -4.8597   -0.5919    1.9712 C.3       1 <0>        -0.0678
     30 C30         0.4555    0.7445   -1.3388 C.3       1 <0>         0.1065
     31 N1         -0.4979   -2.7598    1.9615 N.am      1 <0>        -0.4315
     32 N2         -5.7943    1.2997   -2.9095 N.pl3     1 <0>        -0.8671
     33 N3         -5.0918    3.5293   -3.4484 N.pl3     1 <0>        -0.8581
     34 N4          0.4455    0.1980   -0.0008 N.am      1 <0>        -0.5687
     35 N5         -3.5026   -2.9419    0.5527 N.am      1 <0>        -0.5746
     36 N6         -3.4217    1.8252   -3.0463 N.pl3     1 <0>        -0.7533
     37 O1         -0.5362   -1.8555   -0.4928 O.2       1 <0>        -0.5843
     38 O2         -2.2659   -3.9924    2.8322 O.2       1 <0>        -0.6812
     39 O3         -2.7407   -1.8909   -1.3761 O.2       1 <0>        -0.5788
     40 O4         -5.5038   -8.9480   -5.1226 O.3       1 <0>        -0.4938
     41 O5          0.9879   -6.5072   -0.1510 O.3       1 <0>        -0.6030
     42 O6          1.5971    2.7470   -0.6113 O.3       1 <0>        -0.5860
     43 O7         -5.5970   -3.6017   -1.2587 O.3       1 <0>        -0.6021
     44 H1         -6.1508   -6.5826   -1.3107 H         1 <0>         0.1412
     45 H2         -2.4612   -6.0256   -3.4640 H         1 <0>         0.1451
     46 H3         -6.8903   -8.2172   -3.0039 H         1 <0>         0.1336
     47 H4         -3.2039   -7.6615   -5.1558 H         1 <0>         0.1567
     48 H5          3.5627   -2.8549    0.7003 H         1 <0>         0.0649
     49 H6          2.0259   -2.5829   -0.0837 H         1 <0>         0.0476
     50 H7          2.8567   -4.7427   -0.7790 H         1 <0>         0.0641
     51 H8          3.1032   -5.2618    0.8729 H         1 <0>         0.0484
     52 H9          2.1569   -0.7868    1.7257 H         1 <0>         0.0596
     53 H10         1.5124   -1.2395    3.3116 H         1 <0>         0.0757
     54 H11         1.0921   -5.7802    2.3299 H         1 <0>         0.0782
     55 H12        -0.5175   -5.5090    1.7393 H         1 <0>         0.0812
     56 H13        -0.5378   -0.6778    2.3126 H         1 <0>         0.0731
     57 H14         2.6304   -3.2407    2.8169 H         1 <0>         0.0511
     58 H15         0.4523   -3.8218    3.4319 H         1 <0>         0.0753
     59 H16         0.3841   -4.5700   -0.3844 H         1 <0>         0.0427
     60 H17        -6.4424   -0.5993    0.4810 H         1 <0>         0.0450
     61 H18        -6.3080   -2.1101    1.3767 H         1 <0>         0.0406
     62 H19        -5.1167   -1.7184    0.1225 H         1 <0>         0.0274
     63 H20        -3.5507    0.3732    0.5159 H         1 <0>         0.0476
     64 H21        -4.9709    1.3343    0.9644 H         1 <0>         0.0170
     65 H22        -3.6139    1.1889    2.0888 H         1 <0>         0.0477
     66 H23        -2.7165   -5.2642   -1.1527 H         1 <0>         0.0814
     67 H24        -4.2138   -5.5125   -0.2789 H         1 <0>         0.0685
     68 H25        -0.1747    2.7139   -3.2707 H         1 <0>         0.1016
     69 H26        -0.9072    1.2071   -3.8124 H         1 <0>         0.0660
     70 H27        -1.7000    0.7382   -1.4859 H         1 <0>         0.0512
     71 H28        -1.0340    2.2618   -0.9330 H         1 <0>         0.0454
     72 H29        -3.1790   -0.9587    3.2928 H         1 <0>         0.0575
     73 H30        -4.2588   -2.3274    3.1083 H         1 <0>         0.0743
     74 H31        -2.3940    3.1346   -4.2905 H         1 <0>         0.0662
     75 H32        -2.4118    3.5787   -2.5778 H         1 <0>         0.0622
     76 H33         1.7842    2.0214   -2.5223 H         1 <0>         0.0321
     77 H34         2.5988    1.0866   -1.2555 H         1 <0>         0.0204
     78 H35        -2.2612   -1.3523    0.9714 H         1 <0>         0.0749
     79 H36        -4.1226   -3.5812   -2.6805 H         1 <0>         0.0719
     80 H37        -5.5109   -0.2494    2.7849 H         1 <0>         0.0609
     81 H38         0.5463   -0.0881   -2.0483 H         1 <0>         0.1063
     82 H39        -5.6066    0.3277   -2.6788 H         1 <0>         0.4792
     83 H40        -6.7696    1.5821   -2.9737 H         1 <0>         0.4819
     84 H41        -4.3678    4.2231   -3.6185 H         1 <0>         0.4802
     85 H42        -6.0604    3.8326   -3.5158 H         1 <0>         0.4826
     86 H43         0.8216    0.7626    0.7549 H         1 <0>         0.3101
     87 H44        -4.0841   -3.7053    0.9020 H         1 <0>         0.3087
     88 H45        -3.2407    0.8418   -2.8107 H         1 <0>         0.4846
     89 H46        -6.4681   -8.9121   -5.2259 H         1 <0>         0.4194
     90 H47         1.8515   -6.8926    0.0654 H         1 <0>         0.4036
     91 H48         1.0115    3.3975   -1.0313 H         1 <0>         0.4114
     92 H49        -5.9717   -4.4883   -1.1291 H         1 <0>         0.3944
@<TRIPOS>BOND
     1    1    3 ar
     2    1    5 ar
     3    2    4 ar
     4    2    5 ar
     5    3    6 ar
     6    4    6 ar
     7    5   21 1
     8    6   40 1
     9    7   15 1
    10    7   34 am
    11    7   37 2
    12    8   27 1
    13    8   31 am
    14    8   38 2
    15    9   28 1
    16    9   35 am
    17    9   39 2
    18   10   32 1
    19   10   33 1
    20   10   36 1
    21   11   12 1
    22   11   16 1
    23   12   18 1
    24   13   15 1
    25   13   16 1
    26   14   17 1
    27   14   18 1
    28   15   31 1
    29   16   17 1
    30   17   31 1
    31   18   41 1
    32   19   29 1
    33   20   29 1
    34   21   28 1
    35   22   23 1
    36   22   25 1
    37   23   30 1
    38   24   27 1
    39   24   29 1
    40   25   36 1
    41   26   30 1
    42   26   42 1
    43   27   35 1
    44   28   43 1
    45   30   34 1
    46    1   44 1
    47    2   45 1
    48    3   46 1
    49    4   47 1
    50   11   48 1
    51   11   49 1
    52   12   50 1
    53   12   51 1
    54   13   52 1
    55   13   53 1
    56   14   54 1
    57   14   55 1
    58   15   56 1
    59   16   57 1
    60   17   58 1
    61   18   59 1
    62   19   60 1
    63   19   61 1
    64   19   62 1
    65   20   63 1
    66   20   64 1
    67   20   65 1
    68   21   66 1
    69   21   67 1
    70   22   68 1
    71   22   69 1
    72   23   70 1
    73   23   71 1
    74   24   72 1
    75   24   73 1
    76   25   74 1
    77   25   75 1
    78   26   76 1
    79   26   77 1
    80   27   78 1
    81   28   79 1
    82   29   80 1
    83   30   81 1
    84   32   82 1
    85   32   83 1
    86   33   84 1
    87   33   85 1
    88   34   86 1
    89   35   87 1
    90   36   88 1
    91   40   89 1
    92   41   90 1
    93   42   91 1
    94   43   92 1
@<TRIPOS>MOLECULE
1a2c_ligand_179
   92    94     0     0     0
SMALL
USER_CHARGES

mmff94s_NoEstat = 115.03
@<TRIPOS>ATOM
      1 C1          9.1194    0.3522    5.3691 C.ar      1 <0>        -0.0708
      2 C2          7.5116    1.9345    4.5040 C.ar      1 <0>        -0.0872
      3 C3         10.1172    1.3238    5.2919 C.ar      1 <0>        -0.2241
      4 C4          8.5094    2.9061    4.4268 C.ar      1 <0>        -0.1600
      5 C5          7.8301    0.6705    4.9742 C.ar      1 <0>        -0.1356
      6 C6          9.8122    2.6008    4.8207 C.ar      1 <0>         0.1290
      7 C7          0.1755   -1.0766    0.1327 C.2       1 <0>         0.6664
      8 C8          2.3785   -0.9757    2.2764 C.2       1 <0>         0.6651
      9 C9          5.2968   -1.9145    3.7000 C.2       1 <0>         0.6454
     10 C10        -2.5602    5.4959   -1.4070 C.cat     1 <0>         0.6349
     11 C11         2.4521   -5.3069   -0.2561 C.3       1 <0>        -0.0642
     12 C12         1.2413   -5.9691    0.3982 C.3       1 <0>        -0.0747
     13 C13         1.5734   -2.9393   -0.7647 C.3       1 <0>        -0.0873
     14 C14         1.0938   -4.1277    2.1072 C.3       1 <0>        -0.1371
     15 C15         1.5650   -1.6216    0.0133 C.3       1 <0>         0.0360
     16 C16         2.5597   -3.8106    0.0203 C.3       1 <0>        -0.0720
     17 C17         2.2934   -3.4012    1.4755 C.3       1 <0>         0.1201
     18 C18         1.1411   -5.6363    1.8853 C.3       1 <0>         0.1453
     19 C19         3.8896   -0.8379    6.4377 C.3       1 <0>        -0.0968
     20 C20         2.2599   -2.7349    6.3694 C.3       1 <0>        -0.0986
     21 C21         6.7497   -0.3812    5.0585 C.3       1 <0>        -0.0191
     22 C22        -0.8926    2.1585   -2.0178 C.3       1 <0>        -0.1009
     23 C23        -1.7042    1.3734   -0.9807 C.3       1 <0>        -0.0942
     24 C24         1.9925   -0.8489    4.7298 C.3       1 <0>        -0.0988
     25 C25        -0.8921    3.6522   -1.6998 C.3       1 <0>         0.1966
     26 C26        -2.3281   -0.5974   -2.5191 C.3       1 <0>         0.1128
     27 C27         2.8496   -1.4560    3.6253 C.3       1 <0>         0.0786
     28 C28         6.6400   -1.1984    3.7670 C.3       1 <0>         0.0744
     29 C29         2.4383   -1.2292    6.1562 C.3       1 <0>        -0.0678
     30 C30        -1.7203   -0.1547   -1.1858 C.3       1 <0>         0.1065
     31 N1          2.0322   -1.9586    1.3590 N.am      1 <0>        -0.4315
     32 N2         -3.8790    5.9383   -1.4136 N.pl3     1 <0>        -0.8671
     33 N3         -1.5440    6.3983   -1.1122 N.pl3     1 <0>        -0.8581
     34 N4         -0.3878   -0.7030   -1.0725 N.am      1 <0>        -0.5687
     35 N5          4.2184   -1.0331    3.6724 N.am      1 <0>        -0.5746
     36 N6         -2.2448    4.1563   -1.6927 N.pl3     1 <0>        -0.7533
     37 O1         -0.3509   -1.0007    1.2367 O.2       1 <0>        -0.5843
     38 O2          2.3230    0.2335    2.0409 O.2       1 <0>        -0.6812
     39 O3          5.2019   -3.1398    3.6875 O.2       1 <0>        -0.5788
     40 O4         10.7855    3.5494    4.7469 O.3       1 <0>        -0.4938
     41 O5          2.2611   -6.1715    2.5852 O.3       1 <0>        -0.6030
     42 O6         -2.3150   -2.0161   -2.6084 O.3       1 <0>        -0.5860
     43 O7          7.6677   -2.1787    3.7522 O.3       1 <0>        -0.6021
     44 H1          9.3666   -0.6398    5.7373 H         1 <0>         0.1412
     45 H2          6.4992    2.1814    4.1952 H         1 <0>         0.1451
     46 H3         11.1300    1.0799    5.6003 H         1 <0>         0.1336
     47 H4          8.2654    3.8995    4.0597 H         1 <0>         0.1567
     48 H5          3.3605   -5.7937    0.1218 H         1 <0>         0.0649
     49 H6          2.4319   -5.4897   -1.3370 H         1 <0>         0.0476
     50 H7          0.3241   -5.6545   -0.1129 H         1 <0>         0.0641
     51 H8          1.3294   -7.0545    0.2691 H         1 <0>         0.0484
     52 H9          0.5754   -3.3919   -0.8000 H         1 <0>         0.0596
     53 H10         1.8977   -2.7914   -1.8003 H         1 <0>         0.0757
     54 H11         1.0807   -3.9085    3.1823 H         1 <0>         0.0782
     55 H12         0.1523   -3.7376    1.7002 H         1 <0>         0.0812
     56 H13         2.2202   -0.8626   -0.4249 H         1 <0>         0.0731
     57 H14         3.5726   -3.4842   -0.2571 H         1 <0>         0.0511
     58 H15         3.1875   -3.5701    2.0864 H         1 <0>         0.0753
     59 H16         0.2435   -6.1003    2.3075 H         1 <0>         0.0427
     60 H17         4.2001   -1.1859    7.4289 H         1 <0>         0.0450
     61 H18         4.0203    0.2482    6.4220 H         1 <0>         0.0406
     62 H19         4.5693   -1.2752    5.6986 H         1 <0>         0.0274
     63 H20         2.8852   -3.3113    5.6789 H         1 <0>         0.0476
     64 H21         2.5335   -3.0185    7.3913 H         1 <0>         0.0170
     65 H22         1.2173   -3.0301    6.2104 H         1 <0>         0.0477
     66 H23         5.7901    0.1053    5.2788 H         1 <0>         0.0814
     67 H24         6.9627   -1.0264    5.9201 H         1 <0>         0.0685
     68 H25         0.1421    1.7972   -2.0400 H         1 <0>         0.1016
     69 H26        -1.3056    2.0013   -3.0214 H         1 <0>         0.0660
     70 H27        -2.7398    1.7399   -0.9878 H         1 <0>         0.0512
     71 H28        -1.3141    1.5959    0.0208 H         1 <0>         0.0454
     72 H29         0.9469   -1.1516    4.5828 H         1 <0>         0.0575
     73 H30         2.0032    0.2464    4.6399 H         1 <0>         0.0743
     74 H31        -0.3092    4.1997   -2.4481 H         1 <0>         0.0662
     75 H32        -0.4371    3.8362   -0.7211 H         1 <0>         0.0622
     76 H33        -1.7808   -0.1883   -3.3747 H         1 <0>         0.0321
     77 H34        -3.3702   -0.2663   -2.5940 H         1 <0>         0.0204
     78 H35         2.8203   -2.5449    3.6159 H         1 <0>         0.0749
     79 H36         6.7551   -0.5663    2.8785 H         1 <0>         0.0719
     80 H37         1.7968   -0.7138    6.8816 H         1 <0>         0.0609
     81 H38        -2.3330   -0.5735   -0.3770 H         1 <0>         0.1063
     82 H39        -4.6538    5.3153   -1.6253 H         1 <0>         0.4792
     83 H40        -4.1057    6.9083   -1.2072 H         1 <0>         0.4819
     84 H41        -0.5691    6.1086   -1.0987 H         1 <0>         0.4802
     85 H42        -1.7492    7.3720   -0.9013 H         1 <0>         0.4826
     86 H43         0.1607   -0.8193   -1.9192 H         1 <0>         0.3101
     87 H44         4.4137   -0.0309    3.6864 H         1 <0>         0.3087
     88 H45        -3.0336    3.5329   -1.9034 H         1 <0>         0.4846
     89 H46        11.6422    3.1378    4.5506 H         1 <0>         0.4194
     90 H47         2.7873   -5.4145    2.8873 H         1 <0>         0.4036
     91 H48        -1.4187   -2.2711   -2.8803 H         1 <0>         0.4114
     92 H49         8.3173   -1.9150    4.4243 H         1 <0>         0.3944
@<TRIPOS>BOND
     1    1    3 ar
     2    1    5 ar
     3    2    4 ar
     4    2    5 ar
     5    3    6 ar
     6    4    6 ar
     7    5   21 1
     8    6   40 1
     9    7   15 1
    10    7   34 am
    11    7   37 2
    12    8   27 1
    13    8   31 am
    14    8   38 2
    15    9   28 1
    16    9   35 am
    17    9   39 2
    18   10   32 1
    19   10   33 1
    20   10   36 1
    21   11   12 1
    22   11   16 1
    23   12   18 1
    24   13   15 1
    25   13   16 1
    26   14   17 1
    27   14   18 1
    28   15   31 1
    29   16   17 1
    30   17   31 1
    31   18   41 1
    32   19   29 1
    33   20   29 1
    34   21   28 1
    35   22   23 1
    36   22   25 1
    37   23   30 1
    38   24   27 1
    39   24   29 1
    40   25   36 1
    41   26   30 1
    42   26   42 1
    43   27   35 1
    44   28   43 1
    45   30   34 1
    46    1   44 1
    47    2   45 1
    48    3   46 1
    49    4   47 1
    50   11   48 1
    51   11   49 1
    52   12   50 1
    53   12   51 1
    54   13   52 1
    55   13   53 1
    56   14   54 1
    57   14   55 1
    58   15   56 1
    59   16   57 1
    60   17   58 1
    61   18   59 1
    62   19   60 1
    63   19   61 1
    64   19   62 1
    65   20   63 1
    66   20   64 1
    67   20   65 1
    68   21   66 1
    69   21   67 1
    70   22   68 1
    71   22   69 1
    72   23   70 1
    73   23   71 1
    74   24   72 1
    75   24   73 1
    76   25   74 1
    77   25   75 1
    78   26   76 1
    79   26   77 1
    80   27   78 1
    81   28   79 1
    82   29   80 1
    83   30   81 1
    84   32   82 1
    85   32   83 1
    86   33   84 1
    87   33   85 1
    88   34   86 1
    89   35   87 1
    90   36   88 1
    91   40   89 1
    92   41   90 1
    93   42   91 1
    94   43   92 1
@<TRIPOS>MOLECULE
1a2c_ligand_180
   92    94     0     0     0
SMALL
USER_CHARGES

mmff94s_NoEstat = 115.16
@<TRIPOS>ATOM
      1 C1         -5.5012   -6.8146   -2.1504 C.ar      1 <0>        -0.0708
      2 C2         -3.4323   -6.5023   -3.3583 C.ar      1 <0>        -0.0872
      3 C3         -5.9204   -7.7389   -3.1072 C.ar      1 <0>        -0.2241
      4 C4         -3.8515   -7.4266   -4.3152 C.ar      1 <0>        -0.1600
      5 C5         -4.2629   -6.2087   -2.2887 C.ar      1 <0>        -0.1356
      6 C6         -5.0955   -8.0449   -4.1897 C.ar      1 <0>         0.1290
      7 C7         -0.0512   -1.0561    0.2993 C.2       1 <0>         0.6664
      8 C8         -1.8469   -3.0457    2.1630 C.2       1 <0>         0.6651
      9 C9         -3.4040   -2.7670   -0.8258 C.2       1 <0>         0.6454
     10 C10        -3.3294    2.0808   -3.5565 C.cat     1 <0>         0.6349
     11 C11         2.5186   -3.1911    0.6823 C.3       1 <0>        -0.0642
     12 C12         2.4580   -4.6414    0.2376 C.3       1 <0>        -0.0747
     13 C13         1.4874   -1.4827    2.2418 C.3       1 <0>        -0.0873
     14 C14         0.4946   -5.0934    1.7133 C.3       1 <0>        -0.1371
     15 C15         0.0412   -1.4176    1.7503 C.3       1 <0>         0.0360
     16 C16         1.8865   -2.9529    2.0632 C.3       1 <0>        -0.0720
     17 C17         0.5665   -3.7001    2.3454 C.3       1 <0>         0.1201
     18 C18         1.0248   -5.1525    0.2868 C.3       1 <0>         0.1453
     19 C19        -5.7275   -1.2982    0.9287 C.3       1 <0>        -0.0968
     20 C20        -4.2097    0.6462    1.3473 C.3       1 <0>        -0.0986
     21 C21        -3.8088   -5.2086   -1.2523 C.3       1 <0>        -0.0191
     22 C22        -1.0374    2.7415   -0.6235 C.3       1 <0>        -0.1009
     23 C23         0.2513    2.2726   -1.3090 C.3       1 <0>        -0.0942
     24 C24        -3.7699   -1.5150    2.5525 C.3       1 <0>        -0.0988
     25 C25        -2.2684    2.1304   -1.2894 C.3       1 <0>         0.1966
     26 C26         1.7383    0.3016   -2.0469 C.3       1 <0>         0.1128
     27 C27        -2.8325   -2.1090    1.5076 C.3       1 <0>         0.0786
     28 C28        -4.2317   -3.7794   -1.6077 C.3       1 <0>         0.0744
     29 C29        -4.8597   -0.5919    1.9712 C.3       1 <0>        -0.0678
     30 C30         0.4555    0.7445   -1.3388 C.3       1 <0>         0.1065
     31 N1         -0.4979   -2.7598    1.9615 N.am      1 <0>        -0.4315
     32 N2         -3.3390    2.4766   -4.8899 N.pl3     1 <0>        -0.8671
     33 N3         -4.3382    1.2447   -3.0902 N.pl3     1 <0>        -0.8581
     34 N4          0.4455    0.1980   -0.0008 N.am      1 <0>        -0.5687
     35 N5         -3.5026   -2.9419    0.5527 N.am      1 <0>        -0.5746
     36 N6         -2.3186    2.5130   -2.6805 N.pl3     1 <0>        -0.7533
     37 O1         -0.5362   -1.8555   -0.4928 O.2       1 <0>        -0.5843
     38 O2         -2.2659   -3.9924    2.8322 O.2       1 <0>        -0.6812
     39 O3         -2.7407   -1.8909   -1.3761 O.2       1 <0>        -0.5788
     40 O4         -5.5038   -8.9480   -5.1226 O.3       1 <0>        -0.4938
     41 O5          0.9879   -6.5072   -0.1510 O.3       1 <0>        -0.6030
     42 O6          2.8703    0.8436   -1.3793 O.3       1 <0>        -0.5860
     43 O7         -5.5970   -3.6017   -1.2587 O.3       1 <0>        -0.6021
     44 H1         -6.1508   -6.5826   -1.3107 H         1 <0>         0.1412
     45 H2         -2.4612   -6.0256   -3.4640 H         1 <0>         0.1451
     46 H3         -6.8903   -8.2172   -3.0039 H         1 <0>         0.1336
     47 H4         -3.2039   -7.6615   -5.1558 H         1 <0>         0.1567
     48 H5          3.5627   -2.8549    0.7003 H         1 <0>         0.0649
     49 H6          2.0259   -2.5829   -0.0837 H         1 <0>         0.0476
     50 H7          2.8567   -4.7427   -0.7790 H         1 <0>         0.0641
     51 H8          3.1032   -5.2618    0.8729 H         1 <0>         0.0484
     52 H9          2.1569   -0.7868    1.7257 H         1 <0>         0.0596
     53 H10         1.5124   -1.2395    3.3116 H         1 <0>         0.0757
     54 H11         1.0921   -5.7802    2.3299 H         1 <0>         0.0782
     55 H12        -0.5175   -5.5090    1.7393 H         1 <0>         0.0812
     56 H13        -0.5378   -0.6778    2.3126 H         1 <0>         0.0731
     57 H14         2.6304   -3.2407    2.8169 H         1 <0>         0.0511
     58 H15         0.4523   -3.8218    3.4319 H         1 <0>         0.0753
     59 H16         0.3841   -4.5700   -0.3844 H         1 <0>         0.0427
     60 H17        -6.4424   -0.5993    0.4810 H         1 <0>         0.0450
     61 H18        -6.3080   -2.1101    1.3767 H         1 <0>         0.0406
     62 H19        -5.1167   -1.7184    0.1225 H         1 <0>         0.0274
     63 H20        -3.5507    0.3732    0.5159 H         1 <0>         0.0476
     64 H21        -4.9709    1.3343    0.9644 H         1 <0>         0.0170
     65 H22        -3.6139    1.1889    2.0888 H         1 <0>         0.0477
     66 H23        -2.7165   -5.2642   -1.1527 H         1 <0>         0.0814
     67 H24        -4.2138   -5.5125   -0.2789 H         1 <0>         0.0685
     68 H25        -1.0263    2.4588    0.4356 H         1 <0>         0.1016
     69 H26        -1.1105    3.8350   -0.6596 H         1 <0>         0.0660
     70 H27         1.1110    2.7323   -0.8028 H         1 <0>         0.0512
     71 H28         0.2685    2.6560   -2.3373 H         1 <0>         0.0454
     72 H29        -3.1790   -0.9587    3.2928 H         1 <0>         0.0575
     73 H30        -4.2588   -2.3274    3.1083 H         1 <0>         0.0743
     74 H31        -3.1804    2.4738   -0.7898 H         1 <0>         0.0662
     75 H32        -2.2399    1.0381   -1.2201 H         1 <0>         0.0622
     76 H33         1.7614    0.6251   -3.0928 H         1 <0>         0.0321
     77 H34         1.8289   -0.7905   -2.0281 H         1 <0>         0.0204
     78 H35        -2.2612   -1.3523    0.9714 H         1 <0>         0.0749
     79 H36        -4.1226   -3.5812   -2.6805 H         1 <0>         0.0719
     80 H37        -5.5109   -0.2494    2.7849 H         1 <0>         0.0609
     81 H38        -0.3978    0.3245   -1.8868 H         1 <0>         0.1063
     82 H39        -2.6237    3.0881   -5.2742 H         1 <0>         0.4792
     83 H40        -4.0716    2.1635   -5.5226 H         1 <0>         0.4819
     84 H41        -4.3615    0.9362   -2.1213 H         1 <0>         0.4802
     85 H42        -5.0788    0.9188   -3.7066 H         1 <0>         0.4826
     86 H43         0.8216    0.7626    0.7549 H         1 <0>         0.3101
     87 H44        -4.0841   -3.7053    0.9020 H         1 <0>         0.3087
     88 H45        -1.5986    3.1289   -3.0773 H         1 <0>         0.4846
     89 H46        -6.4681   -8.9121   -5.2259 H         1 <0>         0.4194
     90 H47         1.8515   -6.8926    0.0654 H         1 <0>         0.4036
     91 H48         2.9636    1.7601   -1.6856 H         1 <0>         0.4114
     92 H49        -5.9717   -4.4883   -1.1291 H         1 <0>         0.3944
@<TRIPOS>BOND
     1    1    3 ar
     2    1    5 ar
     3    2    4 ar
     4    2    5 ar
     5    3    6 ar
     6    4    6 ar
     7    5   21 1
     8    6   40 1
     9    7   15 1
    10    7   34 am
    11    7   37 2
    12    8   27 1
    13    8   31 am
    14    8   38 2
    15    9   28 1
    16    9   35 am
    17    9   39 2
    18   10   32 1
    19   10   33 1
    20   10   36 1
    21   11   12 1
    22   11   16 1
    23   12   18 1
    24   13   15 1
    25   13   16 1
    26   14   17 1
    27   14   18 1
    28   15   31 1
    29   16   17 1
    30   17   31 1
    31   18   41 1
    32   19   29 1
    33   20   29 1
    34   21   28 1
    35   22   23 1
    36   22   25 1
    37   23   30 1
    38   24   27 1
    39   24   29 1
    40   25   36 1
    41   26   30 1
    42   26   42 1
    43   27   35 1
    44   28   43 1
    45   30   34 1
    46    1   44 1
    47    2   45 1
    48    3   46 1
    49    4   47 1
    50   11   48 1
    51   11   49 1
    52   12   50 1
    53   12   51 1
    54   13   52 1
    55   13   53 1
    56   14   54 1
    57   14   55 1
    58   15   56 1
    59   16   57 1
    60   17   58 1
    61   18   59 1
    62   19   60 1
    63   19   61 1
    64   19   62 1
    65   20   63 1
    66   20   64 1
    67   20   65 1
    68   21   66 1
    69   21   67 1
    70   22   68 1
    71   22   69 1
    72   23   70 1
    73   23   71 1
    74   24   72 1
    75   24   73 1
    76   25   74 1
    77   25   75 1
    78   26   76 1
    79   26   77 1
    80   27   78 1
    81   28   79 1
    82   29   80 1
    83   30   81 1
    84   32   82 1
    85   32   83 1
    86   33   84 1
    87   33   85 1
    88   34   86 1
    89   35   87 1
    90   36   88 1
    91   40   89 1
    92   41   90 1
    93   42   91 1
    94   43   92 1
@<TRIPOS>MOLECULE
1a2c_ligand_181
   92    94     0     0     0
SMALL
USER_CHARGES

mmff94s_NoEstat = 115.18
@<TRIPOS>ATOM
      1 C1         -9.0847   -1.3044   -2.6485 C.ar      1 <0>        -0.0708
      2 C2         -8.5472   -3.2829   -1.3702 C.ar      1 <0>        -0.0872
      3 C3        -10.1778   -1.9642   -3.2101 C.ar      1 <0>        -0.2241
      4 C4         -9.6404   -3.9427   -1.9318 C.ar      1 <0>        -0.1600
      5 C5         -8.2841   -1.9726   -1.7361 C.ar      1 <0>        -0.1356
      6 C6        -10.4557   -3.2834   -2.8518 C.ar      1 <0>         0.1290
      7 C7         -0.1674   -1.0853   -0.0424 C.2       1 <0>         0.6664
      8 C8         -2.5997   -3.1326    0.7250 C.2       1 <0>         0.6651
      9 C9         -4.5933   -1.1215   -1.1219 C.2       1 <0>         0.6454
     10 C10         0.4631    4.5671    2.8364 C.cat     1 <0>         0.6349
     11 C11         2.0445   -3.7524    0.2047 C.3       1 <0>        -0.0642
     12 C12         2.1951   -5.1517   -0.3975 C.3       1 <0>        -0.0747
     13 C13         0.7864   -2.3272    1.9103 C.3       1 <0>        -0.0873
     14 C14        -0.3466   -4.9962   -0.4055 C.3       1 <0>        -0.1371
     15 C15        -0.4770   -1.8334    1.2187 C.3       1 <0>         0.0360
     16 C16         1.0305   -3.7327    1.3503 C.3       1 <0>        -0.0720
     17 C17        -0.3661   -4.2312    0.9284 C.3       1 <0>         0.1201
     18 C18         0.8694   -5.9135   -0.5141 C.3       1 <0>         0.1453
     19 C19        -5.9631   -0.4404    1.7581 C.3       1 <0>        -0.0968
     20 C20        -3.8887    0.7550    2.4841 C.3       1 <0>        -0.0986
     21 C21        -7.1011   -1.2580   -1.1276 C.3       1 <0>        -0.0191
     22 C22        -0.3657    2.9388    0.0730 C.3       1 <0>        -0.1009
     23 C23         0.9718    2.4190   -0.4671 C.3       1 <0>        -0.0942
     24 C24        -3.8619   -1.7555    2.3678 C.3       1 <0>        -0.0988
     25 C25        -0.2710    4.4161    0.4476 C.3       1 <0>         0.1966
     26 C26         2.3035    0.4585   -1.4784 C.3       1 <0>         0.1128
     27 C27        -3.3800   -1.8574    0.9254 C.3       1 <0>         0.0786
     28 C28        -5.8260   -1.4472   -1.9560 C.3       1 <0>         0.0744
     29 C29        -4.7285   -0.5135    2.6578 C.3       1 <0>        -0.0678
     30 C30         0.9627    0.9465   -0.9241 C.3       1 <0>         0.1065
     31 N1         -1.2224   -3.0398    0.8850 N.am      1 <0>        -0.4315
     32 N2          1.4715    4.7528    3.7764 N.pl3     1 <0>        -0.8671
     33 N3         -0.8376    4.3409    3.2734 N.pl3     1 <0>        -0.8581
     34 N4          0.5562    0.0753    0.1551 N.am      1 <0>        -0.5687
     35 N5         -4.4491   -1.9660   -0.0233 N.am      1 <0>        -0.5746
     36 N6          0.7415    4.6053    1.4592 N.pl3     1 <0>        -0.7533
     37 O1         -0.5544   -1.5275   -1.1177 O.2       1 <0>        -0.5843
     38 O2         -3.1933   -4.1752    0.4418 O.2       1 <0>        -0.6812
     39 O3         -3.8320   -0.1982   -1.4017 O.2       1 <0>        -0.5788
     40 O4        -11.5233   -3.9266   -3.3985 O.3       1 <0>        -0.4938
     41 O5          0.7872   -6.8901    0.5248 O.3       1 <0>        -0.6030
     42 O6          2.6815    1.2516   -2.5959 O.3       1 <0>        -0.5860
     43 O7         -5.8598   -0.5599   -3.0646 O.3       1 <0>        -0.6021
     44 H1         -8.8761   -0.2769   -2.9339 H         1 <0>         0.1412
     45 H2         -7.9176   -3.8044   -0.6540 H         1 <0>         0.1451
     46 H3        -10.8091   -1.4452   -3.9259 H         1 <0>         0.1336
     47 H4         -9.8523   -4.9701   -1.6479 H         1 <0>         0.1567
     48 H5          3.0220   -3.4003    0.5555 H         1 <0>         0.0649
     49 H6          1.7363   -3.0584   -0.5866 H         1 <0>         0.0476
     50 H7          2.6388   -5.0399   -1.3944 H         1 <0>         0.0641
     51 H8          2.9088   -5.7297    0.2024 H         1 <0>         0.0484
     52 H9          1.6439   -1.6583    1.7836 H         1 <0>         0.0596
     53 H10         0.5887   -2.4119    2.9867 H         1 <0>         0.0757
     54 H11        -1.2632   -5.5927   -0.4872 H         1 <0>         0.0782
     55 H12        -0.3526   -4.2949   -1.2498 H         1 <0>         0.0812
     56 H13        -1.0651   -1.1731    1.8629 H         1 <0>         0.0731
     57 H14         1.4245   -4.3763    2.1480 H         1 <0>         0.0511
     58 H15        -0.7725   -4.8823    1.7135 H         1 <0>         0.0753
     59 H16         0.8433   -6.4624   -1.4612 H         1 <0>         0.0427
     60 H17        -6.5181    0.4873    1.9352 H         1 <0>         0.0450
     61 H18        -6.6497   -1.2692    1.9547 H         1 <0>         0.0406
     62 H19        -5.6850   -0.4702    0.6992 H         1 <0>         0.0274
     63 H20        -3.5277    0.8553    1.4548 H         1 <0>         0.0476
     64 H21        -4.4764    1.6472    2.7254 H         1 <0>         0.0170
     65 H22        -3.0188    0.7404    3.1493 H         1 <0>         0.0477
     66 H23        -6.9441   -1.6275   -0.1054 H         1 <0>         0.0814
     67 H24        -7.3548   -0.1954   -1.0258 H         1 <0>         0.0685
     68 H25        -1.1525    2.8103   -0.6795 H         1 <0>         0.1016
     69 H26        -0.6706    2.3600    0.9531 H         1 <0>         0.0660
     70 H27         1.7402    2.5418    0.3082 H         1 <0>         0.0512
     71 H28         1.2882    3.0521   -1.3060 H         1 <0>         0.0454
     72 H29        -2.9928   -1.7573    3.0396 H         1 <0>         0.0575
     73 H30        -4.4407   -2.6540    2.6237 H         1 <0>         0.0743
     74 H31        -1.2325    4.7733    0.8314 H         1 <0>         0.0662
     75 H32        -0.0162    5.0192   -0.4299 H         1 <0>         0.0622
     76 H33         2.2598   -0.5896   -1.7925 H         1 <0>         0.0321
     77 H34         3.0888    0.5522   -0.7196 H         1 <0>         0.0204
     78 H35        -2.7366   -1.0282    0.6336 H         1 <0>         0.0749
     79 H36        -5.7413   -2.4715   -2.3380 H         1 <0>         0.0719
     80 H37        -5.0656   -0.5471    3.7011 H         1 <0>         0.0609
     81 H38         0.2159    0.8710   -1.7251 H         1 <0>         0.1063
     82 H39         2.4365    4.9191    3.5036 H         1 <0>         0.4792
     83 H40         1.2686    4.7243    4.7729 H         1 <0>         0.4819
     84 H41        -1.5988    4.2011    2.6134 H         1 <0>         0.4802
     85 H42        -1.0622    4.3104    4.2650 H         1 <0>         0.4826
     86 H43         0.8147    0.3282    1.1041 H         1 <0>         0.3101
     87 H44        -5.1428   -2.7027    0.1135 H         1 <0>         0.3087
     88 H45         1.7186    4.7759    1.1921 H         1 <0>         0.4846
     89 H46       -11.6766   -3.6139   -4.3044 H         1 <0>         0.4194
     90 H47         1.3049   -6.5470    1.2701 H         1 <0>         0.4036
     91 H48         2.1897    0.9107   -3.3603 H         1 <0>         0.4114
     92 H49        -6.7778   -0.2556   -3.1531 H         1 <0>         0.3944
@<TRIPOS>BOND
     1    1    3 ar
     2    1    5 ar
     3    2    4 ar
     4    2    5 ar
     5    3    6 ar
     6    4    6 ar
     7    5   21 1
     8    6   40 1
     9    7   15 1
    10    7   34 am
    11    7   37 2
    12    8   27 1
    13    8   31 am
    14    8   38 2
    15    9   28 1
    16    9   35 am
    17    9   39 2
    18   10   32 1
    19   10   33 1
    20   10   36 1
    21   11   12 1
    22   11   16 1
    23   12   18 1
    24   13   15 1
    25   13   16 1
    26   14   17 1
    27   14   18 1
    28   15   31 1
    29   16   17 1
    30   17   31 1
    31   18   41 1
    32   19   29 1
    33   20   29 1
    34   21   28 1
    35   22   23 1
    36   22   25 1
    37   23   30 1
    38   24   27 1
    39   24   29 1
    40   25   36 1
    41   26   30 1
    42   26   42 1
    43   27   35 1
    44   28   43 1
    45   30   34 1
    46    1   44 1
    47    2   45 1
    48    3   46 1
    49    4   47 1
    50   11   48 1
    51   11   49 1
    52   12   50 1
    53   12   51 1
    54   13   52 1
    55   13   53 1
    56   14   54 1
    57   14   55 1
    58   15   56 1
    59   16   57 1
    60   17   58 1
    61   18   59 1
    62   19   60 1
    63   19   61 1
    64   19   62 1
    65   20   63 1
    66   20   64 1
    67   20   65 1
    68   21   66 1
    69   21   67 1
    70   22   68 1
    71   22   69 1
    72   23   70 1
    73   23   71 1
    74   24   72 1
    75   24   73 1
    76   25   74 1
    77   25   75 1
    78   26   76 1
    79   26   77 1
    80   27   78 1
    81   28   79 1
    82   29   80 1
    83   30   81 1
    84   32   82 1
    85   32   83 1
    86   33   84 1
    87   33   85 1
    88   34   86 1
    89   35   87 1
    90   36   88 1
    91   40   89 1
    92   41   90 1
    93   42   91 1
    94   43   92 1
@<TRIPOS>MOLECULE
1a2c_ligand_182
   92    94     0     0     0
SMALL
USER_CHARGES

mmff94s_NoEstat = 115.30
@<TRIPOS>ATOM
      1 C1         -4.9929   -5.5460   -4.3314 C.ar      1 <0>        -0.0708
      2 C2         -6.2813   -3.5051   -4.2233 C.ar      1 <0>        -0.0872
      3 C3         -6.0094   -6.1484   -5.0726 C.ar      1 <0>        -0.2241
      4 C4         -7.2979   -4.1076   -4.9645 C.ar      1 <0>        -0.1600
      5 C5         -5.1424   -4.2324   -3.9167 C.ar      1 <0>        -0.1356
      6 C6         -7.1619   -5.4292   -5.3891 C.ar      1 <0>         0.1290
      7 C7         -0.0512   -1.0561    0.2993 C.2       1 <0>         0.6664
      8 C8         -1.8469   -3.0457    2.1630 C.2       1 <0>         0.6651
      9 C9         -3.4040   -2.7670   -0.8258 C.2       1 <0>         0.6454
     10 C10        -2.0056    2.7787   -5.7609 C.cat     1 <0>         0.6349
     11 C11         2.5186   -3.1911    0.6823 C.3       1 <0>        -0.0642
     12 C12         2.4580   -4.6414    0.2376 C.3       1 <0>        -0.0747
     13 C13         1.4874   -1.4827    2.2418 C.3       1 <0>        -0.0873
     14 C14         0.4946   -5.0934    1.7133 C.3       1 <0>        -0.1371
     15 C15         0.0412   -1.4176    1.7503 C.3       1 <0>         0.0360
     16 C16         1.8865   -2.9529    2.0632 C.3       1 <0>        -0.0720
     17 C17         0.5665   -3.7001    2.3454 C.3       1 <0>         0.1201
     18 C18         1.0248   -5.1525    0.2868 C.3       1 <0>         0.1453
     19 C19        -5.7275   -1.2982    0.9287 C.3       1 <0>        -0.0968
     20 C20        -4.2097    0.6462    1.3473 C.3       1 <0>        -0.0986
     21 C21        -4.0416   -3.5799   -3.1149 C.3       1 <0>        -0.0191
     22 C22         0.1864    2.9452   -2.6852 C.3       1 <0>        -0.1009
     23 C23         0.2513    2.2726   -1.3090 C.3       1 <0>        -0.0942
     24 C24        -3.7699   -1.5150    2.5525 C.3       1 <0>        -0.0988
     25 C25        -1.0020    2.4297   -3.4939 C.3       1 <0>         0.1966
     26 C26         1.7383    0.3016   -2.0469 C.3       1 <0>         0.1128
     27 C27        -2.8325   -2.1090    1.5076 C.3       1 <0>         0.0786
     28 C28        -4.2317   -3.7794   -1.6077 C.3       1 <0>         0.0744
     29 C29        -4.8597   -0.5919    1.9712 C.3       1 <0>        -0.0678
     30 C30         0.4555    0.7445   -1.3388 C.3       1 <0>         0.1065
     31 N1         -0.4979   -2.7598    1.9615 N.am      1 <0>        -0.4315
     32 N2         -1.9996    3.4228   -6.9937 N.pl3     1 <0>        -0.8671
     33 N3         -2.9898    1.8329   -5.4950 N.pl3     1 <0>        -0.8581
     34 N4          0.4455    0.1980   -0.0008 N.am      1 <0>        -0.5687
     35 N5         -3.5026   -2.9419    0.5527 N.am      1 <0>        -0.5746
     36 N6         -1.0347    3.0704   -4.7872 N.pl3     1 <0>        -0.7533
     37 O1         -0.5362   -1.8555   -0.4928 O.2       1 <0>        -0.5843
     38 O2         -2.2659   -3.9924    2.8322 O.2       1 <0>        -0.6812
     39 O3         -2.7407   -1.8909   -1.3761 O.2       1 <0>        -0.5788
     40 O4         -8.1531   -6.0167   -6.1138 O.3       1 <0>        -0.4938
     41 O5          0.9879   -6.5072   -0.1510 O.3       1 <0>        -0.6030
     42 O6          2.8703    0.8436   -1.3793 O.3       1 <0>        -0.5860
     43 O7         -3.7895   -5.0823   -1.2550 O.3       1 <0>        -0.6021
     44 H1         -4.0988   -6.1142   -4.0895 H         1 <0>         0.1412
     45 H2         -6.3958   -2.4747   -3.8969 H         1 <0>         0.1451
     46 H3         -5.8975   -7.1781   -5.4005 H         1 <0>         0.1336
     47 H4         -8.1930   -3.5417   -5.2088 H         1 <0>         0.1567
     48 H5          3.5627   -2.8549    0.7003 H         1 <0>         0.0649
     49 H6          2.0259   -2.5829   -0.0837 H         1 <0>         0.0476
     50 H7          2.8567   -4.7427   -0.7790 H         1 <0>         0.0641
     51 H8          3.1032   -5.2618    0.8729 H         1 <0>         0.0484
     52 H9          2.1569   -0.7868    1.7257 H         1 <0>         0.0596
     53 H10         1.5124   -1.2395    3.3116 H         1 <0>         0.0757
     54 H11         1.0921   -5.7802    2.3299 H         1 <0>         0.0782
     55 H12        -0.5175   -5.5090    1.7393 H         1 <0>         0.0812
     56 H13        -0.5378   -0.6778    2.3126 H         1 <0>         0.0731
     57 H14         2.6304   -3.2407    2.8169 H         1 <0>         0.0511
     58 H15         0.4523   -3.8218    3.4319 H         1 <0>         0.0753
     59 H16         0.3841   -4.5700   -0.3844 H         1 <0>         0.0427
     60 H17        -6.4424   -0.5993    0.4810 H         1 <0>         0.0450
     61 H18        -6.3080   -2.1101    1.3767 H         1 <0>         0.0406
     62 H19        -5.1167   -1.7184    0.1225 H         1 <0>         0.0274
     63 H20        -3.5507    0.3732    0.5159 H         1 <0>         0.0476
     64 H21        -4.9709    1.3343    0.9644 H         1 <0>         0.0170
     65 H22        -3.6139    1.1889    2.0888 H         1 <0>         0.0477
     66 H23        -4.0106   -2.5080   -3.3518 H         1 <0>         0.0814
     67 H24        -3.0807   -3.9886   -3.4518 H         1 <0>         0.0685
     68 H25         0.0968    4.0317   -2.5708 H         1 <0>         0.1016
     69 H26         1.1124    2.7598   -3.2426 H         1 <0>         0.0660
     70 H27        -0.6751    2.4928   -0.7614 H         1 <0>         0.0512
     71 H28         1.0606    2.7304   -0.7258 H         1 <0>         0.0454
     72 H29        -3.1790   -0.9587    3.2928 H         1 <0>         0.0575
     73 H30        -4.2588   -2.3274    3.1083 H         1 <0>         0.0743
     74 H31        -1.9392    2.6377   -2.9668 H         1 <0>         0.0662
     75 H32        -0.9302    1.3462   -3.6338 H         1 <0>         0.0622
     76 H33         1.7614    0.6251   -3.0928 H         1 <0>         0.0321
     77 H34         1.8289   -0.7905   -2.0281 H         1 <0>         0.0204
     78 H35        -2.2612   -1.3523    0.9714 H         1 <0>         0.0749
     79 H36        -5.2848   -3.6836   -1.3176 H         1 <0>         0.0719
     80 H37        -5.5109   -0.2494    2.7849 H         1 <0>         0.0609
     81 H38        -0.3978    0.3245   -1.8868 H         1 <0>         0.1063
     82 H39        -1.3012    4.1221   -7.2314 H         1 <0>         0.4792
     83 H40        -2.7033    3.2110   -7.6973 H         1 <0>         0.4819
     84 H41        -3.0236    1.3433   -4.6041 H         1 <0>         0.4802
     85 H42        -3.7014    1.6051   -6.1852 H         1 <0>         0.4826
     86 H43         0.8216    0.7626    0.7549 H         1 <0>         0.3101
     87 H44        -4.0841   -3.7053    0.9020 H         1 <0>         0.3087
     88 H45        -0.3315    3.7766   -5.0361 H         1 <0>         0.4846
     89 H46        -8.1971   -6.9658   -5.9160 H         1 <0>         0.4194
     90 H47         1.8515   -6.8926    0.0654 H         1 <0>         0.4036
     91 H48         2.9636    1.7601   -1.6856 H         1 <0>         0.4114
     92 H49        -3.7253   -5.5902   -2.0803 H         1 <0>         0.3944
@<TRIPOS>BOND
     1    1    3 ar
     2    1    5 ar
     3    2    4 ar
     4    2    5 ar
     5    3    6 ar
     6    4    6 ar
     7    5   21 1
     8    6   40 1
     9    7   15 1
    10    7   34 am
    11    7   37 2
    12    8   27 1
    13    8   31 am
    14    8   38 2
    15    9   28 1
    16    9   35 am
    17    9   39 2
    18   10   32 1
    19   10   33 1
    20   10   36 1
    21   11   12 1
    22   11   16 1
    23   12   18 1
    24   13   15 1
    25   13   16 1
    26   14   17 1
    27   14   18 1
    28   15   31 1
    29   16   17 1
    30   17   31 1
    31   18   41 1
    32   19   29 1
    33   20   29 1
    34   21   28 1
    35   22   23 1
    36   22   25 1
    37   23   30 1
    38   24   27 1
    39   24   29 1
    40   25   36 1
    41   26   30 1
    42   26   42 1
    43   27   35 1
    44   28   43 1
    45   30   34 1
    46    1   44 1
    47    2   45 1
    48    3   46 1
    49    4   47 1
    50   11   48 1
    51   11   49 1
    52   12   50 1
    53   12   51 1
    54   13   52 1
    55   13   53 1
    56   14   54 1
    57   14   55 1
    58   15   56 1
    59   16   57 1
    60   17   58 1
    61   18   59 1
    62   19   60 1
    63   19   61 1
    64   19   62 1
    65   20   63 1
    66   20   64 1
    67   20   65 1
    68   21   66 1
    69   21   67 1
    70   22   68 1
    71   22   69 1
    72   23   70 1
    73   23   71 1
    74   24   72 1
    75   24   73 1
    76   25   74 1
    77   25   75 1
    78   26   76 1
    79   26   77 1
    80   27   78 1
    81   28   79 1
    82   29   80 1
    83   30   81 1
    84   32   82 1
    85   32   83 1
    86   33   84 1
    87   33   85 1
    88   34   86 1
    89   35   87 1
    90   36   88 1
    91   40   89 1
    92   41   90 1
    93   42   91 1
    94   43   92 1
@<TRIPOS>MOLECULE
1a2c_ligand_183
   92    94     0     0     0
SMALL
USER_CHARGES

mmff94s_NoEstat = 115.38
@<TRIPOS>ATOM
      1 C1         -5.5012   -6.8146   -2.1504 C.ar      1 <0>        -0.0708
      2 C2         -3.4323   -6.5023   -3.3583 C.ar      1 <0>        -0.0872
      3 C3         -5.9204   -7.7389   -3.1072 C.ar      1 <0>        -0.2241
      4 C4         -3.8515   -7.4266   -4.3152 C.ar      1 <0>        -0.1600
      5 C5         -4.2629   -6.2087   -2.2887 C.ar      1 <0>        -0.1356
      6 C6         -5.0955   -8.0449   -4.1897 C.ar      1 <0>         0.1290
      7 C7         -0.0512   -1.0561    0.2993 C.2       1 <0>         0.6664
      8 C8         -1.8469   -3.0457    2.1630 C.2       1 <0>         0.6651
      9 C9         -3.4040   -2.7670   -0.8258 C.2       1 <0>         0.6454
     10 C10        -3.5369    3.9433   -5.1013 C.cat     1 <0>         0.6349
     11 C11         2.5186   -3.1911    0.6823 C.3       1 <0>        -0.0642
     12 C12         2.4580   -4.6414    0.2376 C.3       1 <0>        -0.0747
     13 C13         1.4874   -1.4827    2.2418 C.3       1 <0>        -0.0873
     14 C14         0.4946   -5.0934    1.7133 C.3       1 <0>        -0.1371
     15 C15         0.0412   -1.4176    1.7503 C.3       1 <0>         0.0360
     16 C16         1.8865   -2.9529    2.0632 C.3       1 <0>        -0.0720
     17 C17         0.5665   -3.7001    2.3454 C.3       1 <0>         0.1201
     18 C18         1.0248   -5.1525    0.2868 C.3       1 <0>         0.1453
     19 C19        -5.7275   -1.2982    0.9287 C.3       1 <0>        -0.0968
     20 C20        -4.2097    0.6462    1.3473 C.3       1 <0>        -0.0986
     21 C21        -3.8088   -5.2086   -1.2523 C.3       1 <0>        -0.0191
     22 C22        -0.9951    2.0137   -3.0747 C.3       1 <0>        -0.1009
     23 C23        -0.8794    1.4488   -1.6540 C.3       1 <0>        -0.0942
     24 C24        -3.7699   -1.5150    2.5525 C.3       1 <0>        -0.0988
     25 C25        -2.3255    2.7368   -3.2725 C.3       1 <0>         0.1966
     26 C26         1.6856    1.6412   -1.5001 C.3       1 <0>         0.1128
     27 C27        -2.8325   -2.1090    1.5076 C.3       1 <0>         0.0786
     28 C28        -4.2317   -3.7794   -1.6077 C.3       1 <0>         0.0744
     29 C29        -4.8597   -0.5919    1.9712 C.3       1 <0>        -0.0678
     30 C30         0.4555    0.7445   -1.3388 C.3       1 <0>         0.1065
     31 N1         -0.4979   -2.7598    1.9615 N.am      1 <0>        -0.4315
     32 N2         -3.5770    4.4221   -6.4067 N.pl3     1 <0>        -0.8671
     33 N3         -4.6286    4.1576   -4.2668 N.pl3     1 <0>        -0.8581
     34 N4          0.4455    0.1980   -0.0008 N.am      1 <0>        -0.5687
     35 N5         -3.5026   -2.9419    0.5527 N.am      1 <0>        -0.5746
     36 N6         -2.4134    3.2499   -4.6190 N.pl3     1 <0>        -0.7533
     37 O1         -0.5362   -1.8555   -0.4928 O.2       1 <0>        -0.5843
     38 O2         -2.2659   -3.9924    2.8322 O.2       1 <0>        -0.6812
     39 O3         -2.7407   -1.8909   -1.3761 O.2       1 <0>        -0.5788
     40 O4         -5.5038   -8.9480   -5.1226 O.3       1 <0>        -0.4938
     41 O5          0.9879   -6.5072   -0.1510 O.3       1 <0>        -0.6030
     42 O6          1.5971    2.7470   -0.6113 O.3       1 <0>        -0.5860
     43 O7         -5.5970   -3.6017   -1.2587 O.3       1 <0>        -0.6021
     44 H1         -6.1508   -6.5826   -1.3107 H         1 <0>         0.1412
     45 H2         -2.4612   -6.0256   -3.4640 H         1 <0>         0.1451
     46 H3         -6.8903   -8.2172   -3.0039 H         1 <0>         0.1336
     47 H4         -3.2039   -7.6615   -5.1558 H         1 <0>         0.1567
     48 H5          3.5627   -2.8549    0.7003 H         1 <0>         0.0649
     49 H6          2.0259   -2.5829   -0.0837 H         1 <0>         0.0476
     50 H7          2.8567   -4.7427   -0.7790 H         1 <0>         0.0641
     51 H8          3.1032   -5.2618    0.8729 H         1 <0>         0.0484
     52 H9          2.1569   -0.7868    1.7257 H         1 <0>         0.0596
     53 H10         1.5124   -1.2395    3.3116 H         1 <0>         0.0757
     54 H11         1.0921   -5.7802    2.3299 H         1 <0>         0.0782
     55 H12        -0.5175   -5.5090    1.7393 H         1 <0>         0.0812
     56 H13        -0.5378   -0.6778    2.3126 H         1 <0>         0.0731
     57 H14         2.6304   -3.2407    2.8169 H         1 <0>         0.0511
     58 H15         0.4523   -3.8218    3.4319 H         1 <0>         0.0753
     59 H16         0.3841   -4.5700   -0.3844 H         1 <0>         0.0427
     60 H17        -6.4424   -0.5993    0.4810 H         1 <0>         0.0450
     61 H18        -6.3080   -2.1101    1.3767 H         1 <0>         0.0406
     62 H19        -5.1167   -1.7184    0.1225 H         1 <0>         0.0274
     63 H20        -3.5507    0.3732    0.5159 H         1 <0>         0.0476
     64 H21        -4.9709    1.3343    0.9644 H         1 <0>         0.0170
     65 H22        -3.6139    1.1889    2.0888 H         1 <0>         0.0477
     66 H23        -2.7165   -5.2642   -1.1527 H         1 <0>         0.0814
     67 H24        -4.2138   -5.5125   -0.2789 H         1 <0>         0.0685
     68 H25        -0.1747    2.7139   -3.2707 H         1 <0>         0.1016
     69 H26        -0.9072    1.2071   -3.8124 H         1 <0>         0.0660
     70 H27        -1.7000    0.7382   -1.4859 H         1 <0>         0.0512
     71 H28        -1.0340    2.2618   -0.9330 H         1 <0>         0.0454
     72 H29        -3.1790   -0.9587    3.2928 H         1 <0>         0.0575
     73 H30        -4.2588   -2.3274    3.1083 H         1 <0>         0.0743
     74 H31        -2.4148    3.5682   -2.5653 H         1 <0>         0.0662
     75 H32        -3.1633    2.0548   -3.0947 H         1 <0>         0.0622
     76 H33         1.7842    2.0214   -2.5223 H         1 <0>         0.0321
     77 H34         2.5988    1.0866   -1.2555 H         1 <0>         0.0204
     78 H35        -2.2612   -1.3523    0.9714 H         1 <0>         0.0749
     79 H36        -4.1226   -3.5812   -2.6805 H         1 <0>         0.0719
     80 H37        -5.5109   -0.2494    2.7849 H         1 <0>         0.0609
     81 H38         0.5463   -0.0881   -2.0483 H         1 <0>         0.1063
     82 H39        -2.8022    4.2908   -7.0514 H         1 <0>         0.4792
     83 H40        -4.3907    4.9244   -6.7542 H         1 <0>         0.4819
     84 H41        -4.6325    3.8212   -3.3069 H         1 <0>         0.4802
     85 H42        -5.4525    4.6557   -4.5950 H         1 <0>         0.4826
     86 H43         0.8216    0.7626    0.7549 H         1 <0>         0.3101
     87 H44        -4.0841   -3.7053    0.9020 H         1 <0>         0.3087
     88 H45        -1.6358    3.1197   -5.2774 H         1 <0>         0.4846
     89 H46        -6.4681   -8.9121   -5.2259 H         1 <0>         0.4194
     90 H47         1.8515   -6.8926    0.0654 H         1 <0>         0.4036
     91 H48         1.0115    3.3975   -1.0313 H         1 <0>         0.4114
     92 H49        -5.9717   -4.4883   -1.1291 H         1 <0>         0.3944
@<TRIPOS>BOND
     1    1    3 ar
     2    1    5 ar
     3    2    4 ar
     4    2    5 ar
     5    3    6 ar
     6    4    6 ar
     7    5   21 1
     8    6   40 1
     9    7   15 1
    10    7   34 am
    11    7   37 2
    12    8   27 1
    13    8   31 am
    14    8   38 2
    15    9   28 1
    16    9   35 am
    17    9   39 2
    18   10   32 1
    19   10   33 1
    20   10   36 1
    21   11   12 1
    22   11   16 1
    23   12   18 1
    24   13   15 1
    25   13   16 1
    26   14   17 1
    27   14   18 1
    28   15   31 1
    29   16   17 1
    30   17   31 1
    31   18   41 1
    32   19   29 1
    33   20   29 1
    34   21   28 1
    35   22   23 1
    36   22   25 1
    37   23   30 1
    38   24   27 1
    39   24   29 1
    40   25   36 1
    41   26   30 1
    42   26   42 1
    43   27   35 1
    44   28   43 1
    45   30   34 1
    46    1   44 1
    47    2   45 1
    48    3   46 1
    49    4   47 1
    50   11   48 1
    51   11   49 1
    52   12   50 1
    53   12   51 1
    54   13   52 1
    55   13   53 1
    56   14   54 1
    57   14   55 1
    58   15   56 1
    59   16   57 1
    60   17   58 1
    61   18   59 1
    62   19   60 1
    63   19   61 1
    64   19   62 1
    65   20   63 1
    66   20   64 1
    67   20   65 1
    68   21   66 1
    69   21   67 1
    70   22   68 1
    71   22   69 1
    72   23   70 1
    73   23   71 1
    74   24   72 1
    75   24   73 1
    76   25   74 1
    77   25   75 1
    78   26   76 1
    79   26   77 1
    80   27   78 1
    81   28   79 1
    82   29   80 1
    83   30   81 1
    84   32   82 1
    85   32   83 1
    86   33   84 1
    87   33   85 1
    88   34   86 1
    89   35   87 1
    90   36   88 1
    91   40   89 1
    92   41   90 1
    93   42   91 1
    94   43   92 1
@<TRIPOS>MOLECULE
1a2c_ligand_184
   92    94     0     0     0
SMALL
USER_CHARGES

mmff94s_NoEstat = 115.39
@<TRIPOS>ATOM
      1 C1         -7.7819   -5.3134   -0.2446 C.ar      1 <0>        -0.0708
      2 C2         -6.4637   -5.0735   -2.2550 C.ar      1 <0>        -0.0872
      3 C3         -8.7792   -5.9591   -0.9756 C.ar      1 <0>        -0.2241
      4 C4         -7.4609   -5.7192   -2.9860 C.ar      1 <0>        -0.1600
      5 C5         -6.6376   -4.8793   -0.8941 C.ar      1 <0>        -0.1356
      6 C6         -8.6187   -6.1620   -2.3463 C.ar      1 <0>         0.1290
      7 C7         -0.0512   -1.0561    0.2993 C.2       1 <0>         0.6664
      8 C8         -1.8469   -3.0457    2.1630 C.2       1 <0>         0.6651
      9 C9         -4.4743   -1.9575    0.3333 C.2       1 <0>         0.6454
     10 C10        -4.6048    3.4001   -1.1814 C.cat     1 <0>         0.6349
     11 C11         2.5186   -3.1911    0.6823 C.3       1 <0>        -0.0642
     12 C12         2.4580   -4.6414    0.2376 C.3       1 <0>        -0.0747
     13 C13         1.4874   -1.4827    2.2418 C.3       1 <0>        -0.0873
     14 C14         0.4946   -5.0934    1.7133 C.3       1 <0>        -0.1371
     15 C15         0.0412   -1.4176    1.7503 C.3       1 <0>         0.0360
     16 C16         1.8865   -2.9529    2.0632 C.3       1 <0>        -0.0720
     17 C17         0.5665   -3.7001    2.3454 C.3       1 <0>         0.1201
     18 C18         1.0248   -5.1525    0.2868 C.3       1 <0>         0.1453
     19 C19        -5.3726   -0.5418    3.1302 C.3       1 <0>        -0.0968
     20 C20        -3.4397    1.0389    2.9738 C.3       1 <0>        -0.0986
     21 C21        -5.5577   -4.1810   -0.1027 C.3       1 <0>        -0.0191
     22 C22        -2.1258    0.5661   -1.5204 C.3       1 <0>        -0.1009
     23 C23        -0.8794    1.4488   -1.6540 C.3       1 <0>        -0.0942
     24 C24        -2.9973   -1.3585    3.5851 C.3       1 <0>        -0.0988
     25 C25        -3.3881    1.3349   -1.9043 C.3       1 <0>         0.1966
     26 C26         1.6856    1.6412   -1.5001 C.3       1 <0>         0.1128
     27 C27        -2.7865   -1.8644    2.1628 C.3       1 <0>         0.0786
     28 C28        -5.7663   -2.6636   -0.0588 C.3       1 <0>         0.0744
     29 C29        -3.9969   -0.1898    3.6979 C.3       1 <0>        -0.0678
     30 C30         0.4555    0.7445   -1.3388 C.3       1 <0>         0.1065
     31 N1         -0.4979   -2.7598    1.9615 N.am      1 <0>        -0.4315
     32 N2         -4.7160    4.4968   -0.3331 N.pl3     1 <0>        -0.8671
     33 N3         -5.5614    3.2101   -2.1727 N.pl3     1 <0>        -0.8581
     34 N4          0.4455    0.1980   -0.0008 N.am      1 <0>        -0.5687
     35 N5         -3.9799   -2.3853    1.5634 N.am      1 <0>        -0.5746
     36 N6         -3.5437    2.4877   -1.0494 N.pl3     1 <0>        -0.7533
     37 O1         -0.5362   -1.8555   -0.4928 O.2       1 <0>        -0.5843
     38 O2         -2.2998   -4.1783    2.3409 O.2       1 <0>        -0.6812
     39 O3         -3.9527   -1.0962   -0.3713 O.2       1 <0>        -0.5788
     40 O4         -9.5911   -6.7934   -3.0592 O.3       1 <0>        -0.4938
     41 O5          0.9879   -6.5072   -0.1510 O.3       1 <0>        -0.6030
     42 O6          1.5971    2.7470   -0.6113 O.3       1 <0>        -0.5860
     43 O7         -6.7522   -2.3613    0.9179 O.3       1 <0>        -0.6021
     44 H1         -7.9160   -5.1597    0.8227 H         1 <0>         0.1412
     45 H2         -5.5648   -4.7322   -2.7618 H         1 <0>         0.1451
     46 H3         -9.6786   -6.3017   -0.4716 H         1 <0>         0.1336
     47 H4         -7.3297   -5.8752   -4.0535 H         1 <0>         0.1567
     48 H5          3.5627   -2.8549    0.7003 H         1 <0>         0.0649
     49 H6          2.0259   -2.5829   -0.0837 H         1 <0>         0.0476
     50 H7          2.8567   -4.7427   -0.7790 H         1 <0>         0.0641
     51 H8          3.1032   -5.2618    0.8729 H         1 <0>         0.0484
     52 H9          2.1569   -0.7868    1.7257 H         1 <0>         0.0596
     53 H10         1.5124   -1.2395    3.3116 H         1 <0>         0.0757
     54 H11         1.0921   -5.7802    2.3299 H         1 <0>         0.0782
     55 H12        -0.5175   -5.5090    1.7393 H         1 <0>         0.0812
     56 H13        -0.5378   -0.6778    2.3126 H         1 <0>         0.0731
     57 H14         2.6304   -3.2407    2.8169 H         1 <0>         0.0511
     58 H15         0.4523   -3.8218    3.4319 H         1 <0>         0.0753
     59 H16         0.3841   -4.5700   -0.3844 H         1 <0>         0.0427
     60 H17        -6.0375    0.3284    3.1563 H         1 <0>         0.0450
     61 H18        -5.8542   -1.3328    3.7128 H         1 <0>         0.0406
     62 H19        -5.2988   -0.8789    2.0908 H         1 <0>         0.0274
     63 H20        -3.3028    0.8425    1.9049 H         1 <0>         0.0476
     64 H21        -4.1178    1.8926    3.0773 H         1 <0>         0.0170
     65 H22        -2.4708    1.3315    3.3922 H         1 <0>         0.0477
     66 H23        -4.5797   -4.4138   -0.5447 H         1 <0>         0.0814
     67 H24        -5.5388   -4.6089    0.9075 H         1 <0>         0.0685
     68 H25        -2.0346   -0.3163   -2.1645 H         1 <0>         0.1016
     69 H26        -2.2229    0.1995   -0.4914 H         1 <0>         0.0660
     70 H27        -0.9849    2.3163   -0.9885 H         1 <0>         0.0512
     71 H28        -0.8376    1.8555   -2.6726 H         1 <0>         0.0454
     72 H29        -2.0302   -1.0518    4.0061 H         1 <0>         0.0575
     73 H30        -3.3514   -2.1846    4.2177 H         1 <0>         0.0743
     74 H31        -4.2695    0.6926   -1.8042 H         1 <0>         0.0662
     75 H32        -3.3332    1.6675   -2.9460 H         1 <0>         0.0622
     76 H33         1.7842    2.0214   -2.5223 H         1 <0>         0.0321
     77 H34         2.5988    1.0866   -1.2555 H         1 <0>         0.0204
     78 H35        -2.3647   -1.1082    1.5019 H         1 <0>         0.0749
     79 H36        -6.1093   -2.2753   -1.0251 H         1 <0>         0.0719
     80 H37        -4.1195    0.0762    4.7551 H         1 <0>         0.0609
     81 H38         0.5463   -0.0881   -2.0483 H         1 <0>         0.1063
     82 H39        -4.0418    4.6748    0.4066 H         1 <0>         0.4792
     83 H40        -5.4849    5.1560   -0.4294 H         1 <0>         0.4819
     84 H41        -5.5105    2.4190   -2.8099 H         1 <0>         0.4802
     85 H42        -6.3370    3.8583   -2.2872 H         1 <0>         0.4826
     86 H43         0.8216    0.7626    0.7549 H         1 <0>         0.3101
     87 H44        -4.4957   -3.1095    2.0656 H         1 <0>         0.3087
     88 H45        -2.8658    2.6759   -0.3010 H         1 <0>         0.4846
     89 H46       -10.4643   -6.5976   -2.6838 H         1 <0>         0.4194
     90 H47         1.8515   -6.8926    0.0654 H         1 <0>         0.4036
     91 H48         1.0115    3.3975   -1.0313 H         1 <0>         0.4114
     92 H49        -7.2150   -3.1917    1.1166 H         1 <0>         0.3944
@<TRIPOS>BOND
     1    1    3 ar
     2    1    5 ar
     3    2    4 ar
     4    2    5 ar
     5    3    6 ar
     6    4    6 ar
     7    5   21 1
     8    6   40 1
     9    7   15 1
    10    7   34 am
    11    7   37 2
    12    8   27 1
    13    8   31 am
    14    8   38 2
    15    9   28 1
    16    9   35 am
    17    9   39 2
    18   10   32 1
    19   10   33 1
    20   10   36 1
    21   11   12 1
    22   11   16 1
    23   12   18 1
    24   13   15 1
    25   13   16 1
    26   14   17 1
    27   14   18 1
    28   15   31 1
    29   16   17 1
    30   17   31 1
    31   18   41 1
    32   19   29 1
    33   20   29 1
    34   21   28 1
    35   22   23 1
    36   22   25 1
    37   23   30 1
    38   24   27 1
    39   24   29 1
    40   25   36 1
    41   26   30 1
    42   26   42 1
    43   27   35 1
    44   28   43 1
    45   30   34 1
    46    1   44 1
    47    2   45 1
    48    3   46 1
    49    4   47 1
    50   11   48 1
    51   11   49 1
    52   12   50 1
    53   12   51 1
    54   13   52 1
    55   13   53 1
    56   14   54 1
    57   14   55 1
    58   15   56 1
    59   16   57 1
    60   17   58 1
    61   18   59 1
    62   19   60 1
    63   19   61 1
    64   19   62 1
    65   20   63 1
    66   20   64 1
    67   20   65 1
    68   21   66 1
    69   21   67 1
    70   22   68 1
    71   22   69 1
    72   23   70 1
    73   23   71 1
    74   24   72 1
    75   24   73 1
    76   25   74 1
    77   25   75 1
    78   26   76 1
    79   26   77 1
    80   27   78 1
    81   28   79 1
    82   29   80 1
    83   30   81 1
    84   32   82 1
    85   32   83 1
    86   33   84 1
    87   33   85 1
    88   34   86 1
    89   35   87 1
    90   36   88 1
    91   40   89 1
    92   41   90 1
    93   42   91 1
    94   43   92 1
@<TRIPOS>MOLECULE
1a2c_ligand_185
   92    94     0     0     0
SMALL
USER_CHARGES

mmff94s_NoEstat = 115.40
@<TRIPOS>ATOM
      1 C1          9.1194    0.3522    5.3691 C.ar      1 <0>        -0.0708
      2 C2          7.5116    1.9345    4.5040 C.ar      1 <0>        -0.0872
      3 C3         10.1172    1.3238    5.2919 C.ar      1 <0>        -0.2241
      4 C4          8.5094    2.9061    4.4268 C.ar      1 <0>        -0.1600
      5 C5          7.8301    0.6705    4.9742 C.ar      1 <0>        -0.1356
      6 C6          9.8122    2.6008    4.8207 C.ar      1 <0>         0.1290
      7 C7          0.1755   -1.0766    0.1327 C.2       1 <0>         0.6664
      8 C8          2.3785   -0.9757    2.2764 C.2       1 <0>         0.6651
      9 C9          5.2968   -1.9145    3.7000 C.2       1 <0>         0.6454
     10 C10        -0.0701    4.8054    0.2694 C.cat     1 <0>         0.6349
     11 C11         2.4521   -5.3069   -0.2561 C.3       1 <0>        -0.0642
     12 C12         1.2413   -5.9691    0.3982 C.3       1 <0>        -0.0747
     13 C13         1.5734   -2.9393   -0.7647 C.3       1 <0>        -0.0873
     14 C14         1.0938   -4.1277    2.1072 C.3       1 <0>        -0.1371
     15 C15         1.5650   -1.6216    0.0133 C.3       1 <0>         0.0360
     16 C16         2.5597   -3.8106    0.0203 C.3       1 <0>        -0.0720
     17 C17         2.2934   -3.4012    1.4755 C.3       1 <0>         0.1201
     18 C18         1.1411   -5.6363    1.8853 C.3       1 <0>         0.1453
     19 C19         3.8896   -0.8379    6.4377 C.3       1 <0>        -0.0968
     20 C20         2.2599   -2.7349    6.3694 C.3       1 <0>        -0.0986
     21 C21         6.7497   -0.3812    5.0585 C.3       1 <0>        -0.0191
     22 C22        -0.8155    2.0502   -2.2095 C.3       1 <0>        -0.1009
     23 C23        -1.7941    0.8762   -2.3301 C.3       1 <0>        -0.0942
     24 C24         1.9925   -0.8489    4.7298 C.3       1 <0>        -0.0988
     25 C25        -1.0238    2.8078   -0.9000 C.3       1 <0>         0.1966
     26 C26        -2.7214   -1.3050   -1.3187 C.3       1 <0>         0.1128
     27 C27         2.8496   -1.4560    3.6253 C.3       1 <0>         0.0786
     28 C28         6.6400   -1.1984    3.7670 C.3       1 <0>         0.0744
     29 C29         2.4383   -1.2292    6.1562 C.3       1 <0>        -0.0678
     30 C30        -1.7203   -0.1547   -1.1858 C.3       1 <0>         0.1065
     31 N1          2.0322   -1.9586    1.3590 N.am      1 <0>        -0.4315
     32 N2          0.8414    5.8554    0.3094 N.pl3     1 <0>        -0.8671
     33 N3         -0.9638    4.6431    1.3225 N.pl3     1 <0>        -0.8581
     34 N4         -0.3878   -0.7030   -1.0725 N.am      1 <0>        -0.5687
     35 N5          4.2184   -1.0331    3.6724 N.am      1 <0>        -0.5746
     36 N6         -0.0983    3.9125   -0.8157 N.pl3     1 <0>        -0.7533
     37 O1         -0.3509   -1.0007    1.2367 O.2       1 <0>        -0.5843
     38 O2          2.3230    0.2335    2.0409 O.2       1 <0>        -0.6812
     39 O3          5.2019   -3.1398    3.6875 O.2       1 <0>        -0.5788
     40 O4         10.7855    3.5494    4.7469 O.3       1 <0>        -0.4938
     41 O5          2.2611   -6.1715    2.5852 O.3       1 <0>        -0.6030
     42 O6         -2.4752   -2.0231   -2.5206 O.3       1 <0>        -0.5860
     43 O7          7.6677   -2.1787    3.7522 O.3       1 <0>        -0.6021
     44 H1          9.3666   -0.6398    5.7373 H         1 <0>         0.1412
     45 H2          6.4992    2.1814    4.1952 H         1 <0>         0.1451
     46 H3         11.1300    1.0799    5.6003 H         1 <0>         0.1336
     47 H4          8.2654    3.8995    4.0597 H         1 <0>         0.1567
     48 H5          3.3605   -5.7937    0.1218 H         1 <0>         0.0649
     49 H6          2.4319   -5.4897   -1.3370 H         1 <0>         0.0476
     50 H7          0.3241   -5.6545   -0.1129 H         1 <0>         0.0641
     51 H8          1.3294   -7.0545    0.2691 H         1 <0>         0.0484
     52 H9          0.5754   -3.3919   -0.8000 H         1 <0>         0.0596
     53 H10         1.8977   -2.7914   -1.8003 H         1 <0>         0.0757
     54 H11         1.0807   -3.9085    3.1823 H         1 <0>         0.0782
     55 H12         0.1523   -3.7376    1.7002 H         1 <0>         0.0812
     56 H13         2.2202   -0.8626   -0.4249 H         1 <0>         0.0731
     57 H14         3.5726   -3.4842   -0.2571 H         1 <0>         0.0511
     58 H15         3.1875   -3.5701    2.0864 H         1 <0>         0.0753
     59 H16         0.2435   -6.1003    2.3075 H         1 <0>         0.0427
     60 H17         4.2001   -1.1859    7.4289 H         1 <0>         0.0450
     61 H18         4.0203    0.2482    6.4220 H         1 <0>         0.0406
     62 H19         4.5693   -1.2752    5.6986 H         1 <0>         0.0274
     63 H20         2.8852   -3.3113    5.6789 H         1 <0>         0.0476
     64 H21         2.5335   -3.0185    7.3913 H         1 <0>         0.0170
     65 H22         1.2173   -3.0301    6.2104 H         1 <0>         0.0477
     66 H23         5.7901    0.1053    5.2788 H         1 <0>         0.0814
     67 H24         6.9627   -1.0264    5.9201 H         1 <0>         0.0685
     68 H25         0.2178    1.6866   -2.2519 H         1 <0>         0.1016
     69 H26        -0.9442    2.7400   -3.0523 H         1 <0>         0.0660
     70 H27        -1.6130    0.3584   -3.2819 H         1 <0>         0.0512
     71 H28        -2.8171    1.2691   -2.3922 H         1 <0>         0.0454
     72 H29         0.9469   -1.1516    4.5828 H         1 <0>         0.0575
     73 H30         2.0032    0.2464    4.6399 H         1 <0>         0.0743
     74 H31        -0.8652    2.1409   -0.0459 H         1 <0>         0.0662
     75 H32        -2.0467    3.1933   -0.8380 H         1 <0>         0.0622
     76 H33        -3.7565   -0.9478   -1.3308 H         1 <0>         0.0321
     77 H34        -2.6144   -2.0048   -0.4820 H         1 <0>         0.0204
     78 H35         2.8203   -2.5449    3.6159 H         1 <0>         0.0749
     79 H36         6.7551   -0.5663    2.8785 H         1 <0>         0.0719
     80 H37         1.7968   -0.7138    6.8816 H         1 <0>         0.0609
     81 H38        -1.9472    0.3883   -0.2591 H         1 <0>         0.1063
     82 H39         1.5143    6.0117   -0.4363 H         1 <0>         0.4792
     83 H40         0.8610    6.5006    1.0958 H         1 <0>         0.4819
     84 H41        -1.6432    3.8862    1.3255 H         1 <0>         0.4802
     85 H42        -0.9620    5.2780    2.1172 H         1 <0>         0.4826
     86 H43         0.1607   -0.8193   -1.9192 H         1 <0>         0.3101
     87 H44         4.4137   -0.0309    3.6864 H         1 <0>         0.3087
     88 H45         0.5835    4.0786   -1.5659 H         1 <0>         0.4846
     89 H46        11.6422    3.1378    4.5506 H         1 <0>         0.4194
     90 H47         2.7873   -5.4145    2.8873 H         1 <0>         0.4036
     91 H48        -2.8906   -1.5183   -3.2383 H         1 <0>         0.4114
     92 H49         8.3173   -1.9150    4.4243 H         1 <0>         0.3944
@<TRIPOS>BOND
     1    1    3 ar
     2    1    5 ar
     3    2    4 ar
     4    2    5 ar
     5    3    6 ar
     6    4    6 ar
     7    5   21 1
     8    6   40 1
     9    7   15 1
    10    7   34 am
    11    7   37 2
    12    8   27 1
    13    8   31 am
    14    8   38 2
    15    9   28 1
    16    9   35 am
    17    9   39 2
    18   10   32 1
    19   10   33 1
    20   10   36 1
    21   11   12 1
    22   11   16 1
    23   12   18 1
    24   13   15 1
    25   13   16 1
    26   14   17 1
    27   14   18 1
    28   15   31 1
    29   16   17 1
    30   17   31 1
    31   18   41 1
    32   19   29 1
    33   20   29 1
    34   21   28 1
    35   22   23 1
    36   22   25 1
    37   23   30 1
    38   24   27 1
    39   24   29 1
    40   25   36 1
    41   26   30 1
    42   26   42 1
    43   27   35 1
    44   28   43 1
    45   30   34 1
    46    1   44 1
    47    2   45 1
    48    3   46 1
    49    4   47 1
    50   11   48 1
    51   11   49 1
    52   12   50 1
    53   12   51 1
    54   13   52 1
    55   13   53 1
    56   14   54 1
    57   14   55 1
    58   15   56 1
    59   16   57 1
    60   17   58 1
    61   18   59 1
    62   19   60 1
    63   19   61 1
    64   19   62 1
    65   20   63 1
    66   20   64 1
    67   20   65 1
    68   21   66 1
    69   21   67 1
    70   22   68 1
    71   22   69 1
    72   23   70 1
    73   23   71 1
    74   24   72 1
    75   24   73 1
    76   25   74 1
    77   25   75 1
    78   26   76 1
    79   26   77 1
    80   27   78 1
    81   28   79 1
    82   29   80 1
    83   30   81 1
    84   32   82 1
    85   32   83 1
    86   33   84 1
    87   33   85 1
    88   34   86 1
    89   35   87 1
    90   36   88 1
    91   40   89 1
    92   41   90 1
    93   42   91 1
    94   43   92 1
@<TRIPOS>MOLECULE
1a2c_ligand_186
   92    94     0     0     0
SMALL
USER_CHARGES

mmff94s_NoEstat = 115.50
@<TRIPOS>ATOM
      1 C1         -9.0847   -1.3044   -2.6485 C.ar      1 <0>        -0.0708
      2 C2         -8.5472   -3.2829   -1.3702 C.ar      1 <0>        -0.0872
      3 C3        -10.1778   -1.9642   -3.2101 C.ar      1 <0>        -0.2241
      4 C4         -9.6404   -3.9427   -1.9318 C.ar      1 <0>        -0.1600
      5 C5         -8.2841   -1.9726   -1.7361 C.ar      1 <0>        -0.1356
      6 C6        -10.4557   -3.2834   -2.8518 C.ar      1 <0>         0.1290
      7 C7         -0.1674   -1.0853   -0.0424 C.2       1 <0>         0.6664
      8 C8         -2.5997   -3.1326    0.7250 C.2       1 <0>         0.6651
      9 C9         -4.5933   -1.1215   -1.1219 C.2       1 <0>         0.6454
     10 C10         3.7055    5.2717   -0.2025 C.cat     1 <0>         0.6349
     11 C11         2.0445   -3.7524    0.2047 C.3       1 <0>        -0.0642
     12 C12         2.1951   -5.1517   -0.3975 C.3       1 <0>        -0.0747
     13 C13         0.7864   -2.3272    1.9103 C.3       1 <0>        -0.0873
     14 C14        -0.3466   -4.9962   -0.4055 C.3       1 <0>        -0.1371
     15 C15        -0.4770   -1.8334    1.2187 C.3       1 <0>         0.0360
     16 C16         1.0305   -3.7327    1.3503 C.3       1 <0>        -0.0720
     17 C17        -0.3661   -4.2312    0.9284 C.3       1 <0>         0.1201
     18 C18         0.8694   -5.9135   -0.5141 C.3       1 <0>         0.1453
     19 C19        -5.9631   -0.4404    1.7581 C.3       1 <0>        -0.0968
     20 C20        -3.8887    0.7550    2.4841 C.3       1 <0>        -0.0986
     21 C21        -7.1011   -1.2580   -1.1276 C.3       1 <0>        -0.0191
     22 C22         1.3330    3.4344   -1.5576 C.3       1 <0>        -0.1009
     23 C23         0.9718    2.4190   -0.4671 C.3       1 <0>        -0.0942
     24 C24        -3.8619   -1.7555    2.3678 C.3       1 <0>        -0.0988
     25 C25         1.3683    4.8545   -0.9971 C.3       1 <0>         0.1966
     26 C26         2.3035    0.4585   -1.4784 C.3       1 <0>         0.1128
     27 C27        -3.3800   -1.8574    0.9254 C.3       1 <0>         0.0786
     28 C28        -5.8260   -1.4472   -1.9560 C.3       1 <0>         0.0744
     29 C29        -4.7285   -0.5135    2.6578 C.3       1 <0>        -0.0678
     30 C30         0.9627    0.9465   -0.9241 C.3       1 <0>         0.1065
     31 N1         -1.2224   -3.0398    0.8850 N.am      1 <0>        -0.4315
     32 N2          4.6272    5.3536    0.8361 N.pl3     1 <0>        -0.8671
     33 N3          4.1285    5.5143   -1.5049 N.pl3     1 <0>        -0.8581
     34 N4          0.5562    0.0753    0.1551 N.am      1 <0>        -0.5687
     35 N5         -4.4491   -1.9660   -0.0233 N.am      1 <0>        -0.5746
     36 N6          2.3605    4.9488    0.0473 N.pl3     1 <0>        -0.7533
     37 O1         -0.5544   -1.5275   -1.1177 O.2       1 <0>        -0.5843
     38 O2         -3.1933   -4.1752    0.4418 O.2       1 <0>        -0.6812
     39 O3         -3.8320   -0.1982   -1.4017 O.2       1 <0>        -0.5788
     40 O4        -11.5233   -3.9266   -3.3985 O.3       1 <0>        -0.4938
     41 O5          0.7872   -6.8901    0.5248 O.3       1 <0>        -0.6030
     42 O6          3.3063    0.5601   -0.4760 O.3       1 <0>        -0.5860
     43 O7         -5.8598   -0.5599   -3.0646 O.3       1 <0>        -0.6021
     44 H1         -8.8761   -0.2769   -2.9339 H         1 <0>         0.1412
     45 H2         -7.9176   -3.8044   -0.6540 H         1 <0>         0.1451
     46 H3        -10.8091   -1.4452   -3.9259 H         1 <0>         0.1336
     47 H4         -9.8523   -4.9701   -1.6479 H         1 <0>         0.1567
     48 H5          3.0220   -3.4003    0.5555 H         1 <0>         0.0649
     49 H6          1.7363   -3.0584   -0.5866 H         1 <0>         0.0476
     50 H7          2.6388   -5.0399   -1.3944 H         1 <0>         0.0641
     51 H8          2.9088   -5.7297    0.2024 H         1 <0>         0.0484
     52 H9          1.6439   -1.6583    1.7836 H         1 <0>         0.0596
     53 H10         0.5887   -2.4119    2.9867 H         1 <0>         0.0757
     54 H11        -1.2632   -5.5927   -0.4872 H         1 <0>         0.0782
     55 H12        -0.3526   -4.2949   -1.2498 H         1 <0>         0.0812
     56 H13        -1.0651   -1.1731    1.8629 H         1 <0>         0.0731
     57 H14         1.4245   -4.3763    2.1480 H         1 <0>         0.0511
     58 H15        -0.7725   -4.8823    1.7135 H         1 <0>         0.0753
     59 H16         0.8433   -6.4624   -1.4612 H         1 <0>         0.0427
     60 H17        -6.5181    0.4873    1.9352 H         1 <0>         0.0450
     61 H18        -6.6497   -1.2692    1.9547 H         1 <0>         0.0406
     62 H19        -5.6850   -0.4702    0.6992 H         1 <0>         0.0274
     63 H20        -3.5277    0.8553    1.4548 H         1 <0>         0.0476
     64 H21        -4.4764    1.6472    2.7254 H         1 <0>         0.0170
     65 H22        -3.0188    0.7404    3.1493 H         1 <0>         0.0477
     66 H23        -6.9441   -1.6275   -0.1054 H         1 <0>         0.0814
     67 H24        -7.3548   -0.1954   -1.0258 H         1 <0>         0.0685
     68 H25         2.3127    3.1949   -1.9871 H         1 <0>         0.1016
     69 H26         0.6063    3.3858   -2.3774 H         1 <0>         0.0660
     70 H27        -0.0191    2.6679   -0.0634 H         1 <0>         0.0512
     71 H28         1.6731    2.5296    0.3700 H         1 <0>         0.0454
     72 H29        -2.9928   -1.7573    3.0396 H         1 <0>         0.0575
     73 H30        -4.4407   -2.6540    2.6237 H         1 <0>         0.0743
     74 H31         0.3896    5.1258   -0.5875 H         1 <0>         0.0662
     75 H32         1.6115    5.5729   -1.7867 H         1 <0>         0.0622
     76 H33         2.6215    1.0387   -2.3510 H         1 <0>         0.0321
     77 H34         2.2342   -0.5935   -1.7781 H         1 <0>         0.0204
     78 H35        -2.7366   -1.0282    0.6336 H         1 <0>         0.0749
     79 H36        -5.7413   -2.4715   -2.3380 H         1 <0>         0.0719
     80 H37        -5.0656   -0.5471    3.7011 H         1 <0>         0.0609
     81 H38         0.2159    0.8710   -1.7251 H         1 <0>         0.1063
     82 H39         4.3633    5.1865    1.8034 H         1 <0>         0.4792
     83 H40         5.6003    5.5880    0.6538 H         1 <0>         0.4819
     84 H41         3.4811    5.4630   -2.2877 H         1 <0>         0.4802
     85 H42         5.0971    5.7484   -1.7090 H         1 <0>         0.4826
     86 H43         0.8147    0.3282    1.1041 H         1 <0>         0.3101
     87 H44        -5.1428   -2.7027    0.1135 H         1 <0>         0.3087
     88 H45         2.1026    4.7794    1.0271 H         1 <0>         0.4846
     89 H46       -11.6766   -3.6139   -4.3044 H         1 <0>         0.4194
     90 H47         1.3049   -6.5470    1.2701 H         1 <0>         0.4036
     91 H48         3.5968    1.4864   -0.4636 H         1 <0>         0.4114
     92 H49        -6.7778   -0.2556   -3.1531 H         1 <0>         0.3944
@<TRIPOS>BOND
     1    1    3 ar
     2    1    5 ar
     3    2    4 ar
     4    2    5 ar
     5    3    6 ar
     6    4    6 ar
     7    5   21 1
     8    6   40 1
     9    7   15 1
    10    7   34 am
    11    7   37 2
    12    8   27 1
    13    8   31 am
    14    8   38 2
    15    9   28 1
    16    9   35 am
    17    9   39 2
    18   10   32 1
    19   10   33 1
    20   10   36 1
    21   11   12 1
    22   11   16 1
    23   12   18 1
    24   13   15 1
    25   13   16 1
    26   14   17 1
    27   14   18 1
    28   15   31 1
    29   16   17 1
    30   17   31 1
    31   18   41 1
    32   19   29 1
    33   20   29 1
    34   21   28 1
    35   22   23 1
    36   22   25 1
    37   23   30 1
    38   24   27 1
    39   24   29 1
    40   25   36 1
    41   26   30 1
    42   26   42 1
    43   27   35 1
    44   28   43 1
    45   30   34 1
    46    1   44 1
    47    2   45 1
    48    3   46 1
    49    4   47 1
    50   11   48 1
    51   11   49 1
    52   12   50 1
    53   12   51 1
    54   13   52 1
    55   13   53 1
    56   14   54 1
    57   14   55 1
    58   15   56 1
    59   16   57 1
    60   17   58 1
    61   18   59 1
    62   19   60 1
    63   19   61 1
    64   19   62 1
    65   20   63 1
    66   20   64 1
    67   20   65 1
    68   21   66 1
    69   21   67 1
    70   22   68 1
    71   22   69 1
    72   23   70 1
    73   23   71 1
    74   24   72 1
    75   24   73 1
    76   25   74 1
    77   25   75 1
    78   26   76 1
    79   26   77 1
    80   27   78 1
    81   28   79 1
    82   29   80 1
    83   30   81 1
    84   32   82 1
    85   32   83 1
    86   33   84 1
    87   33   85 1
    88   34   86 1
    89   35   87 1
    90   36   88 1
    91   40   89 1
    92   41   90 1
    93   42   91 1
    94   43   92 1
@<TRIPOS>MOLECULE
1a2c_ligand_187
   92    94     0     0     0
SMALL
USER_CHARGES

mmff94s_NoEstat = 115.55
@<TRIPOS>ATOM
      1 C1         -9.0847   -1.3044   -2.6485 C.ar      1 <0>        -0.0708
      2 C2         -8.5472   -3.2829   -1.3702 C.ar      1 <0>        -0.0872
      3 C3        -10.1778   -1.9642   -3.2101 C.ar      1 <0>        -0.2241
      4 C4         -9.6404   -3.9427   -1.9318 C.ar      1 <0>        -0.1600
      5 C5         -8.2841   -1.9726   -1.7361 C.ar      1 <0>        -0.1356
      6 C6        -10.4557   -3.2834   -2.8518 C.ar      1 <0>         0.1290
      7 C7         -0.1674   -1.0853   -0.0424 C.2       1 <0>         0.6664
      8 C8         -2.5997   -3.1326    0.7250 C.2       1 <0>         0.6651
      9 C9         -4.5933   -1.1215   -1.1219 C.2       1 <0>         0.6454
     10 C10        -3.9555    3.6068    0.5765 C.cat     1 <0>         0.6349
     11 C11         2.0445   -3.7524    0.2047 C.3       1 <0>        -0.0642
     12 C12         2.1951   -5.1517   -0.3975 C.3       1 <0>        -0.0747
     13 C13         0.7864   -2.3272    1.9103 C.3       1 <0>        -0.0873
     14 C14        -0.3466   -4.9962   -0.4055 C.3       1 <0>        -0.1371
     15 C15        -0.4770   -1.8334    1.2187 C.3       1 <0>         0.0360
     16 C16         1.0305   -3.7327    1.3503 C.3       1 <0>        -0.0720
     17 C17        -0.3661   -4.2312    0.9284 C.3       1 <0>         0.1201
     18 C18         0.8694   -5.9135   -0.5141 C.3       1 <0>         0.1453
     19 C19        -5.9631   -0.4404    1.7581 C.3       1 <0>        -0.0968
     20 C20        -3.8887    0.7550    2.4841 C.3       1 <0>        -0.0986
     21 C21        -7.1011   -1.2580   -1.1276 C.3       1 <0>        -0.0191
     22 C22        -1.2290    2.3228   -0.7494 C.3       1 <0>        -0.1009
     23 C23         0.3037    2.3337   -0.7876 C.3       1 <0>        -0.0942
     24 C24        -3.8619   -1.7555    2.3678 C.3       1 <0>        -0.0988
     25 C25        -1.7874    3.7418   -0.6680 C.3       1 <0>         0.1966
     26 C26         2.4918    0.9866   -0.9811 C.3       1 <0>         0.1128
     27 C27        -3.3800   -1.8574    0.9254 C.3       1 <0>         0.0786
     28 C28        -5.8260   -1.4472   -1.9560 C.3       1 <0>         0.0744
     29 C29        -4.7285   -0.5135    2.6578 C.3       1 <0>        -0.0678
     30 C30         0.9627    0.9465   -0.9241 C.3       1 <0>         0.1065
     31 N1         -1.2224   -3.0398    0.8850 N.am      1 <0>        -0.4315
     32 N2         -5.3462    3.5750    0.5718 N.pl3     1 <0>        -0.8671
     33 N3         -3.2801    3.5417    1.7904 N.pl3     1 <0>        -0.8581
     34 N4          0.5562    0.0753    0.1551 N.am      1 <0>        -0.5687
     35 N5         -4.4491   -1.9660   -0.0233 N.am      1 <0>        -0.5746
     36 N6         -3.2298    3.7033   -0.6234 N.pl3     1 <0>        -0.7533
     37 O1         -0.5544   -1.5275   -1.1177 O.2       1 <0>        -0.5843
     38 O2         -3.1933   -4.1752    0.4418 O.2       1 <0>        -0.6812
     39 O3         -3.8320   -0.1982   -1.4017 O.2       1 <0>        -0.5788
     40 O4        -11.5233   -3.9266   -3.3985 O.3       1 <0>        -0.4938
     41 O5          0.7872   -6.8901    0.5248 O.3       1 <0>        -0.6030
     42 O6          3.0045   -0.3315   -1.1244 O.3       1 <0>        -0.5860
     43 O7         -5.8598   -0.5599   -3.0646 O.3       1 <0>        -0.6021
     44 H1         -8.8761   -0.2769   -2.9339 H         1 <0>         0.1412
     45 H2         -7.9176   -3.8044   -0.6540 H         1 <0>         0.1451
     46 H3        -10.8091   -1.4452   -3.9259 H         1 <0>         0.1336
     47 H4         -9.8523   -4.9701   -1.6479 H         1 <0>         0.1567
     48 H5          3.0220   -3.4003    0.5555 H         1 <0>         0.0649
     49 H6          1.7363   -3.0584   -0.5866 H         1 <0>         0.0476
     50 H7          2.6388   -5.0399   -1.3944 H         1 <0>         0.0641
     51 H8          2.9088   -5.7297    0.2024 H         1 <0>         0.0484
     52 H9          1.6439   -1.6583    1.7836 H         1 <0>         0.0596
     53 H10         0.5887   -2.4119    2.9867 H         1 <0>         0.0757
     54 H11        -1.2632   -5.5927   -0.4872 H         1 <0>         0.0782
     55 H12        -0.3526   -4.2949   -1.2498 H         1 <0>         0.0812
     56 H13        -1.0651   -1.1731    1.8629 H         1 <0>         0.0731
     57 H14         1.4245   -4.3763    2.1480 H         1 <0>         0.0511
     58 H15        -0.7725   -4.8823    1.7135 H         1 <0>         0.0753
     59 H16         0.8433   -6.4624   -1.4612 H         1 <0>         0.0427
     60 H17        -6.5181    0.4873    1.9352 H         1 <0>         0.0450
     61 H18        -6.6497   -1.2692    1.9547 H         1 <0>         0.0406
     62 H19        -5.6850   -0.4702    0.6992 H         1 <0>         0.0274
     63 H20        -3.5277    0.8553    1.4548 H         1 <0>         0.0476
     64 H21        -4.4764    1.6472    2.7254 H         1 <0>         0.0170
     65 H22        -3.0188    0.7404    3.1493 H         1 <0>         0.0477
     66 H23        -6.9441   -1.6275   -0.1054 H         1 <0>         0.0814
     67 H24        -7.3548   -0.1954   -1.0258 H         1 <0>         0.0685
     68 H25        -1.6256    1.8333   -1.6465 H         1 <0>         0.1016
     69 H26        -1.5833    1.7433    0.1115 H         1 <0>         0.0660
     70 H27         0.6789    2.8127    0.1271 H         1 <0>         0.0512
     71 H28         0.6355    2.9707   -1.6175 H         1 <0>         0.0454
     72 H29        -2.9928   -1.7573    3.0396 H         1 <0>         0.0575
     73 H30        -4.4407   -2.6540    2.6237 H         1 <0>         0.0743
     74 H31        -1.4709    4.3252   -1.5390 H         1 <0>         0.0662
     75 H32        -1.4158    4.2497    0.2279 H         1 <0>         0.0622
     76 H33         2.9238    1.4335   -0.0796 H         1 <0>         0.0321
     77 H34         2.8279    1.5728   -1.8441 H         1 <0>         0.0204
     78 H35        -2.7366   -1.0282    0.6336 H         1 <0>         0.0749
     79 H36        -5.7413   -2.4715   -2.3380 H         1 <0>         0.0719
     80 H37        -5.0656   -0.5471    3.7011 H         1 <0>         0.0609
     81 H38         0.5984    0.5173   -1.8665 H         1 <0>         0.1063
     82 H39        -5.8820    3.6219   -0.2908 H         1 <0>         0.4792
     83 H40        -5.8701    3.5057    1.4411 H         1 <0>         0.4819
     84 H41        -2.2640    3.5627    1.8301 H         1 <0>         0.4802
     85 H42        -3.7848    3.4704    2.6706 H         1 <0>         0.4826
     86 H43         0.8147    0.3282    1.1041 H         1 <0>         0.3101
     87 H44        -5.1428   -2.7027    0.1135 H         1 <0>         0.3087
     88 H45        -3.7787    3.7481   -1.4905 H         1 <0>         0.4846
     89 H46       -11.6766   -3.6139   -4.3044 H         1 <0>         0.4194
     90 H47         1.3049   -6.5470    1.2701 H         1 <0>         0.4036
     91 H48         3.0027   -0.7302   -0.2393 H         1 <0>         0.4114
     92 H49        -6.7778   -0.2556   -3.1531 H         1 <0>         0.3944
@<TRIPOS>BOND
     1    1    3 ar
     2    1    5 ar
     3    2    4 ar
     4    2    5 ar
     5    3    6 ar
     6    4    6 ar
     7    5   21 1
     8    6   40 1
     9    7   15 1
    10    7   34 am
    11    7   37 2
    12    8   27 1
    13    8   31 am
    14    8   38 2
    15    9   28 1
    16    9   35 am
    17    9   39 2
    18   10   32 1
    19   10   33 1
    20   10   36 1
    21   11   12 1
    22   11   16 1
    23   12   18 1
    24   13   15 1
    25   13   16 1
    26   14   17 1
    27   14   18 1
    28   15   31 1
    29   16   17 1
    30   17   31 1
    31   18   41 1
    32   19   29 1
    33   20   29 1
    34   21   28 1
    35   22   23 1
    36   22   25 1
    37   23   30 1
    38   24   27 1
    39   24   29 1
    40   25   36 1
    41   26   30 1
    42   26   42 1
    43   27   35 1
    44   28   43 1
    45   30   34 1
    46    1   44 1
    47    2   45 1
    48    3   46 1
    49    4   47 1
    50   11   48 1
    51   11   49 1
    52   12   50 1
    53   12   51 1
    54   13   52 1
    55   13   53 1
    56   14   54 1
    57   14   55 1
    58   15   56 1
    59   16   57 1
    60   17   58 1
    61   18   59 1
    62   19   60 1
    63   19   61 1
    64   19   62 1
    65   20   63 1
    66   20   64 1
    67   20   65 1
    68   21   66 1
    69   21   67 1
    70   22   68 1
    71   22   69 1
    72   23   70 1
    73   23   71 1
    74   24   72 1
    75   24   73 1
    76   25   74 1
    77   25   75 1
    78   26   76 1
    79   26   77 1
    80   27   78 1
    81   28   79 1
    82   29   80 1
    83   30   81 1
    84   32   82 1
    85   32   83 1
    86   33   84 1
    87   33   85 1
    88   34   86 1
    89   35   87 1
    90   36   88 1
    91   40   89 1
    92   41   90 1
    93   42   91 1
    94   43   92 1
@<TRIPOS>MOLECULE
1a2c_ligand_188
   92    94     0     0     0
SMALL
USER_CHARGES

mmff94s_NoEstat = 115.57
@<TRIPOS>ATOM
      1 C1          9.1194    0.3522    5.3691 C.ar      1 <0>        -0.0708
      2 C2          7.5116    1.9345    4.5040 C.ar      1 <0>        -0.0872
      3 C3         10.1172    1.3238    5.2919 C.ar      1 <0>        -0.2241
      4 C4          8.5094    2.9061    4.4268 C.ar      1 <0>        -0.1600
      5 C5          7.8301    0.6705    4.9742 C.ar      1 <0>        -0.1356
      6 C6          9.8122    2.6008    4.8207 C.ar      1 <0>         0.1290
      7 C7          0.1755   -1.0766    0.1327 C.2       1 <0>         0.6664
      8 C8          2.3785   -0.9757    2.2764 C.2       1 <0>         0.6651
      9 C9          5.2968   -1.9145    3.7000 C.2       1 <0>         0.6454
     10 C10        -2.8598    3.6442    2.1211 C.cat     1 <0>         0.6349
     11 C11         2.4521   -5.3069   -0.2561 C.3       1 <0>        -0.0642
     12 C12         1.2413   -5.9691    0.3982 C.3       1 <0>        -0.0747
     13 C13         1.5734   -2.9393   -0.7647 C.3       1 <0>        -0.0873
     14 C14         1.0938   -4.1277    2.1072 C.3       1 <0>        -0.1371
     15 C15         1.5650   -1.6216    0.0133 C.3       1 <0>         0.0360
     16 C16         2.5597   -3.8106    0.0203 C.3       1 <0>        -0.0720
     17 C17         2.2934   -3.4012    1.4755 C.3       1 <0>         0.1201
     18 C18         1.1411   -5.6363    1.8853 C.3       1 <0>         0.1453
     19 C19         3.8896   -0.8379    6.4377 C.3       1 <0>        -0.0968
     20 C20         2.2599   -2.7349    6.3694 C.3       1 <0>        -0.0986
     21 C21         6.7497   -0.3812    5.0585 C.3       1 <0>        -0.0191
     22 C22        -0.3644    2.8488   -0.6052 C.3       1 <0>        -0.1009
     23 C23        -1.2954    1.9500   -1.4274 C.3       1 <0>        -0.0942
     24 C24         1.9925   -0.8489    4.7298 C.3       1 <0>        -0.0988
     25 C25        -0.8242    2.9336    0.8486 C.3       1 <0>         0.1966
     26 C26        -2.3878   -0.3640   -1.7308 C.3       1 <0>         0.1128
     27 C27         2.8496   -1.4560    3.6253 C.3       1 <0>         0.0786
     28 C28         6.6400   -1.1984    3.7670 C.3       1 <0>         0.0744
     29 C29         2.4383   -1.2292    6.1562 C.3       1 <0>        -0.0678
     30 C30        -1.4370    0.5062   -0.9051 C.3       1 <0>         0.1065
     31 N1          2.0322   -1.9586    1.3590 N.am      1 <0>        -0.4315
     32 N2         -4.1481    4.1686    2.1356 N.pl3     1 <0>        -0.8671
     33 N3         -2.2594    3.2879    3.3238 N.pl3     1 <0>        -0.8581
     34 N4         -0.1481   -0.1440   -0.8342 N.am      1 <0>        -0.5687
     35 N5          4.2184   -1.0331    3.6724 N.am      1 <0>        -0.5746
     36 N6         -2.1624    3.4713    0.9130 N.pl3     1 <0>        -0.7533
     37 O1         -0.5534   -1.4727    1.0347 O.2       1 <0>        -0.5843
     38 O2          2.3230    0.2335    2.0409 O.2       1 <0>        -0.6812
     39 O3          5.2019   -3.1398    3.6875 O.2       1 <0>        -0.5788
     40 O4         10.7855    3.5494    4.7469 O.3       1 <0>        -0.4938
     41 O5          2.2611   -6.1715    2.5852 O.3       1 <0>        -0.6030
     42 O6         -1.9117   -0.4666   -3.0663 O.3       1 <0>        -0.5860
     43 O7          7.6677   -2.1787    3.7522 O.3       1 <0>        -0.6021
     44 H1          9.3666   -0.6398    5.7373 H         1 <0>         0.1412
     45 H2          6.4992    2.1814    4.1952 H         1 <0>         0.1451
     46 H3         11.1300    1.0799    5.6003 H         1 <0>         0.1336
     47 H4          8.2654    3.8995    4.0597 H         1 <0>         0.1567
     48 H5          3.3605   -5.7937    0.1218 H         1 <0>         0.0649
     49 H6          2.4319   -5.4897   -1.3370 H         1 <0>         0.0476
     50 H7          0.3241   -5.6545   -0.1129 H         1 <0>         0.0641
     51 H8          1.3294   -7.0545    0.2691 H         1 <0>         0.0484
     52 H9          0.5754   -3.3919   -0.8000 H         1 <0>         0.0596
     53 H10         1.8977   -2.7914   -1.8003 H         1 <0>         0.0757
     54 H11         1.0807   -3.9085    3.1823 H         1 <0>         0.0782
     55 H12         0.1523   -3.7376    1.7002 H         1 <0>         0.0812
     56 H13         2.2202   -0.8626   -0.4249 H         1 <0>         0.0731
     57 H14         3.5726   -3.4842   -0.2571 H         1 <0>         0.0511
     58 H15         3.1875   -3.5701    2.0864 H         1 <0>         0.0753
     59 H16         0.2435   -6.1003    2.3075 H         1 <0>         0.0427
     60 H17         4.2001   -1.1859    7.4289 H         1 <0>         0.0450
     61 H18         4.0203    0.2482    6.4220 H         1 <0>         0.0406
     62 H19         4.5693   -1.2752    5.6986 H         1 <0>         0.0274
     63 H20         2.8852   -3.3113    5.6789 H         1 <0>         0.0476
     64 H21         2.5335   -3.0185    7.3913 H         1 <0>         0.0170
     65 H22         1.2173   -3.0301    6.2104 H         1 <0>         0.0477
     66 H23         5.7901    0.1053    5.2788 H         1 <0>         0.0814
     67 H24         6.9627   -1.0264    5.9201 H         1 <0>         0.0685
     68 H25         0.6597    2.4590   -0.6343 H         1 <0>         0.1016
     69 H26        -0.3328    3.8571   -1.0352 H         1 <0>         0.0660
     70 H27        -0.9322    1.9150   -2.4635 H         1 <0>         0.0512
     71 H28        -2.2895    2.4130   -1.4734 H         1 <0>         0.0454
     72 H29         0.9469   -1.1516    4.5828 H         1 <0>         0.0575
     73 H30         2.0032    0.2464    4.6399 H         1 <0>         0.0743
     74 H31        -0.1507    3.5781    1.4232 H         1 <0>         0.0662
     75 H32        -0.8151    1.9419    1.3126 H         1 <0>         0.0622
     76 H33        -3.4032    0.0453   -1.7522 H         1 <0>         0.0321
     77 H34        -2.4395   -1.3766   -1.3144 H         1 <0>         0.0204
     78 H35         2.8203   -2.5449    3.6159 H         1 <0>         0.0749
     79 H36         6.7551   -0.5663    2.8785 H         1 <0>         0.0719
     80 H37         1.7968   -0.7138    6.8816 H         1 <0>         0.0609
     81 H38        -1.8404    0.5790    0.1132 H         1 <0>         0.1063
     82 H39        -4.6257    4.4446    1.2818 H         1 <0>         0.4792
     83 H40        -4.6515    4.2937    3.0108 H         1 <0>         0.4819
     84 H41        -1.3187    2.9018    3.3494 H         1 <0>         0.4802
     85 H42        -2.7458    3.4032    4.2096 H         1 <0>         0.4826
     86 H43         0.5534    0.0962   -1.5282 H         1 <0>         0.3101
     87 H44         4.4137   -0.0309    3.6864 H         1 <0>         0.3087
     88 H45        -2.6529    3.7508    0.0547 H         1 <0>         0.4846
     89 H46        11.6422    3.1378    4.5506 H         1 <0>         0.4194
     90 H47         2.7873   -5.4145    2.8873 H         1 <0>         0.4036
     91 H48        -2.1844    0.3451   -3.5237 H         1 <0>         0.4114
     92 H49         8.3173   -1.9150    4.4243 H         1 <0>         0.3944
@<TRIPOS>BOND
     1    1    3 ar
     2    1    5 ar
     3    2    4 ar
     4    2    5 ar
     5    3    6 ar
     6    4    6 ar
     7    5   21 1
     8    6   40 1
     9    7   15 1
    10    7   34 am
    11    7   37 2
    12    8   27 1
    13    8   31 am
    14    8   38 2
    15    9   28 1
    16    9   35 am
    17    9   39 2
    18   10   32 1
    19   10   33 1
    20   10   36 1
    21   11   12 1
    22   11   16 1
    23   12   18 1
    24   13   15 1
    25   13   16 1
    26   14   17 1
    27   14   18 1
    28   15   31 1
    29   16   17 1
    30   17   31 1
    31   18   41 1
    32   19   29 1
    33   20   29 1
    34   21   28 1
    35   22   23 1
    36   22   25 1
    37   23   30 1
    38   24   27 1
    39   24   29 1
    40   25   36 1
    41   26   30 1
    42   26   42 1
    43   27   35 1
    44   28   43 1
    45   30   34 1
    46    1   44 1
    47    2   45 1
    48    3   46 1
    49    4   47 1
    50   11   48 1
    51   11   49 1
    52   12   50 1
    53   12   51 1
    54   13   52 1
    55   13   53 1
    56   14   54 1
    57   14   55 1
    58   15   56 1
    59   16   57 1
    60   17   58 1
    61   18   59 1
    62   19   60 1
    63   19   61 1
    64   19   62 1
    65   20   63 1
    66   20   64 1
    67   20   65 1
    68   21   66 1
    69   21   67 1
    70   22   68 1
    71   22   69 1
    72   23   70 1
    73   23   71 1
    74   24   72 1
    75   24   73 1
    76   25   74 1
    77   25   75 1
    78   26   76 1
    79   26   77 1
    80   27   78 1
    81   28   79 1
    82   29   80 1
    83   30   81 1
    84   32   82 1
    85   32   83 1
    86   33   84 1
    87   33   85 1
    88   34   86 1
    89   35   87 1
    90   36   88 1
    91   40   89 1
    92   41   90 1
    93   42   91 1
    94   43   92 1
@<TRIPOS>MOLECULE
1a2c_ligand_189
   92    94     0     0     0
SMALL
USER_CHARGES

mmff94s_NoEstat = 115.78
@<TRIPOS>ATOM
      1 C1         -9.0416   -2.7698   -0.6747 C.ar      1 <0>        -0.0708
      2 C2         -8.5605   -3.3841    1.6118 C.ar      1 <0>        -0.0872
      3 C3        -10.2007   -3.5450   -0.6390 C.ar      1 <0>        -0.2241
      4 C4         -9.7196   -4.1593    1.6475 C.ar      1 <0>        -0.1600
      5 C5         -8.2371   -2.6998    0.4512 C.ar      1 <0>        -0.1356
      6 C6        -10.5397   -4.2397    0.5221 C.ar      1 <0>         0.1290
      7 C7         -0.0512   -1.0561    0.2993 C.2       1 <0>         0.6664
      8 C8         -1.8469   -3.0457    2.1630 C.2       1 <0>         0.6651
      9 C9         -4.4743   -1.9575    0.3333 C.2       1 <0>         0.6454
     10 C10        -2.9473    3.9152   -2.9677 C.cat     1 <0>         0.6349
     11 C11         2.5186   -3.1911    0.6823 C.3       1 <0>        -0.0642
     12 C12         2.4580   -4.6414    0.2376 C.3       1 <0>        -0.0747
     13 C13         1.4874   -1.4827    2.2418 C.3       1 <0>        -0.0873
     14 C14         0.4946   -5.0934    1.7133 C.3       1 <0>        -0.1371
     15 C15         0.0412   -1.4176    1.7503 C.3       1 <0>         0.0360
     16 C16         1.8865   -2.9529    2.0632 C.3       1 <0>        -0.0720
     17 C17         0.5665   -3.7001    2.3454 C.3       1 <0>         0.1201
     18 C18         1.0248   -5.1525    0.2868 C.3       1 <0>         0.1453
     19 C19        -5.3726   -0.5418    3.1302 C.3       1 <0>        -0.0968
     20 C20        -3.4397    1.0389    2.9738 C.3       1 <0>        -0.0986
     21 C21        -6.9826   -1.8600    0.4128 C.3       1 <0>        -0.0191
     22 C22         0.1864    2.9452   -2.6852 C.3       1 <0>        -0.1009
     23 C23         0.2513    2.2726   -1.3090 C.3       1 <0>        -0.0942
     24 C24        -2.9973   -1.3585    3.5851 C.3       1 <0>        -0.0988
     25 C25        -1.0020    2.4297   -3.4939 C.3       1 <0>         0.1966
     26 C26         1.7383    0.3016   -2.0469 C.3       1 <0>         0.1128
     27 C27        -2.7865   -1.8644    2.1628 C.3       1 <0>         0.0786
     28 C28        -5.7663   -2.6636   -0.0588 C.3       1 <0>         0.0744
     29 C29        -3.9969   -0.1898    3.6979 C.3       1 <0>        -0.0678
     30 C30         0.4555    0.7445   -1.3388 C.3       1 <0>         0.1065
     31 N1         -0.4979   -2.7598    1.9615 N.am      1 <0>        -0.4315
     32 N2         -4.1326    4.1473   -2.2777 N.pl3     1 <0>        -0.8671
     33 N3         -2.4668    4.8892   -3.8364 N.pl3     1 <0>        -0.8581
     34 N4          0.4455    0.1980   -0.0008 N.am      1 <0>        -0.5687
     35 N5         -3.9799   -2.3853    1.5634 N.am      1 <0>        -0.5746
     36 N6         -2.2343    2.7158   -2.7984 N.pl3     1 <0>        -0.7533
     37 O1         -0.5362   -1.8555   -0.4928 O.2       1 <0>        -0.5843
     38 O2         -2.2998   -4.1783    2.3409 O.2       1 <0>        -0.6812
     39 O3         -3.9527   -1.0962   -0.3713 O.2       1 <0>        -0.5788
     40 O4        -11.6716   -4.9948    0.5574 O.3       1 <0>        -0.4938
     41 O5          0.9879   -6.5072   -0.1510 O.3       1 <0>        -0.6030
     42 O6          2.8703    0.8436   -1.3793 O.3       1 <0>        -0.5860
     43 O7         -5.8033   -2.7691   -1.4747 O.3       1 <0>        -0.6021
     44 H1         -8.7857   -2.2324   -1.5837 H         1 <0>         0.1412
     45 H2         -7.9276   -3.3270    2.4936 H         1 <0>         0.1451
     46 H3        -10.8355   -3.6036   -1.5188 H         1 <0>         0.1336
     47 H4         -9.9788   -4.6975    2.5554 H         1 <0>         0.1567
     48 H5          3.5627   -2.8549    0.7003 H         1 <0>         0.0649
     49 H6          2.0259   -2.5829   -0.0837 H         1 <0>         0.0476
     50 H7          2.8567   -4.7427   -0.7790 H         1 <0>         0.0641
     51 H8          3.1032   -5.2618    0.8729 H         1 <0>         0.0484
     52 H9          2.1569   -0.7868    1.7257 H         1 <0>         0.0596
     53 H10         1.5124   -1.2395    3.3116 H         1 <0>         0.0757
     54 H11         1.0921   -5.7802    2.3299 H         1 <0>         0.0782
     55 H12        -0.5175   -5.5090    1.7393 H         1 <0>         0.0812
     56 H13        -0.5378   -0.6778    2.3126 H         1 <0>         0.0731
     57 H14         2.6304   -3.2407    2.8169 H         1 <0>         0.0511
     58 H15         0.4523   -3.8218    3.4319 H         1 <0>         0.0753
     59 H16         0.3841   -4.5700   -0.3844 H         1 <0>         0.0427
     60 H17        -6.0375    0.3284    3.1563 H         1 <0>         0.0450
     61 H18        -5.8542   -1.3328    3.7128 H         1 <0>         0.0406
     62 H19        -5.2988   -0.8789    2.0908 H         1 <0>         0.0274
     63 H20        -3.3028    0.8425    1.9049 H         1 <0>         0.0476
     64 H21        -4.1178    1.8926    3.0773 H         1 <0>         0.0170
     65 H22        -2.4708    1.3315    3.3922 H         1 <0>         0.0477
     66 H23        -6.7957   -1.4461    1.4127 H         1 <0>         0.0814
     67 H24        -7.1653   -0.9964   -0.2390 H         1 <0>         0.0685
     68 H25         0.0968    4.0317   -2.5708 H         1 <0>         0.1016
     69 H26         1.1124    2.7598   -3.2426 H         1 <0>         0.0660
     70 H27        -0.6751    2.4928   -0.7614 H         1 <0>         0.0512
     71 H28         1.0606    2.7304   -0.7258 H         1 <0>         0.0454
     72 H29        -2.0302   -1.0518    4.0061 H         1 <0>         0.0575
     73 H30        -3.3514   -2.1846    4.2177 H         1 <0>         0.0743
     74 H31        -0.9183    1.3483   -3.6452 H         1 <0>         0.0662
     75 H32        -1.0301    2.9043   -4.4802 H         1 <0>         0.0622
     76 H33         1.7614    0.6251   -3.0928 H         1 <0>         0.0321
     77 H34         1.8289   -0.7905   -2.0281 H         1 <0>         0.0204
     78 H35        -2.3647   -1.1082    1.5019 H         1 <0>         0.0749
     79 H36        -5.7642   -3.6764    0.3613 H         1 <0>         0.0719
     80 H37        -4.1195    0.0762    4.7551 H         1 <0>         0.0609
     81 H38        -0.3978    0.3245   -1.8868 H         1 <0>         0.1063
     82 H39        -4.5227    3.4638   -1.6343 H         1 <0>         0.4792
     83 H40        -4.6480    5.0157   -2.4017 H         1 <0>         0.4819
     84 H41        -1.6036    4.7521   -4.3566 H         1 <0>         0.4802
     85 H42        -2.9657    5.7650   -3.9734 H         1 <0>         0.4826
     86 H43         0.8216    0.7626    0.7549 H         1 <0>         0.3101
     87 H44        -4.4957   -3.1095    2.0656 H         1 <0>         0.3087
     88 H45        -2.6341    2.0314   -2.1450 H         1 <0>         0.4846
     89 H46       -11.8523   -5.3712   -0.3187 H         1 <0>         0.4194
     90 H47         1.8515   -6.8926    0.0654 H         1 <0>         0.4036
     91 H48         2.9636    1.7601   -1.6856 H         1 <0>         0.4114
     92 H49        -6.7043   -2.5341   -1.7506 H         1 <0>         0.3944
@<TRIPOS>BOND
     1    1    3 ar
     2    1    5 ar
     3    2    4 ar
     4    2    5 ar
     5    3    6 ar
     6    4    6 ar
     7    5   21 1
     8    6   40 1
     9    7   15 1
    10    7   34 am
    11    7   37 2
    12    8   27 1
    13    8   31 am
    14    8   38 2
    15    9   28 1
    16    9   35 am
    17    9   39 2
    18   10   32 1
    19   10   33 1
    20   10   36 1
    21   11   12 1
    22   11   16 1
    23   12   18 1
    24   13   15 1
    25   13   16 1
    26   14   17 1
    27   14   18 1
    28   15   31 1
    29   16   17 1
    30   17   31 1
    31   18   41 1
    32   19   29 1
    33   20   29 1
    34   21   28 1
    35   22   23 1
    36   22   25 1
    37   23   30 1
    38   24   27 1
    39   24   29 1
    40   25   36 1
    41   26   30 1
    42   26   42 1
    43   27   35 1
    44   28   43 1
    45   30   34 1
    46    1   44 1
    47    2   45 1
    48    3   46 1
    49    4   47 1
    50   11   48 1
    51   11   49 1
    52   12   50 1
    53   12   51 1
    54   13   52 1
    55   13   53 1
    56   14   54 1
    57   14   55 1
    58   15   56 1
    59   16   57 1
    60   17   58 1
    61   18   59 1
    62   19   60 1
    63   19   61 1
    64   19   62 1
    65   20   63 1
    66   20   64 1
    67   20   65 1
    68   21   66 1
    69   21   67 1
    70   22   68 1
    71   22   69 1
    72   23   70 1
    73   23   71 1
    74   24   72 1
    75   24   73 1
    76   25   74 1
    77   25   75 1
    78   26   76 1
    79   26   77 1
    80   27   78 1
    81   28   79 1
    82   29   80 1
    83   30   81 1
    84   32   82 1
    85   32   83 1
    86   33   84 1
    87   33   85 1
    88   34   86 1
    89   35   87 1
    90   36   88 1
    91   40   89 1
    92   41   90 1
    93   42   91 1
    94   43   92 1
@<TRIPOS>MOLECULE
1a2c_ligand_190
   92    94     0     0     0
SMALL
USER_CHARGES

mmff94s_NoEstat = 115.80
@<TRIPOS>ATOM
      1 C1          9.1194    0.3522    5.3691 C.ar      1 <0>        -0.0708
      2 C2          7.5116    1.9345    4.5040 C.ar      1 <0>        -0.0872
      3 C3         10.1172    1.3238    5.2919 C.ar      1 <0>        -0.2241
      4 C4          8.5094    2.9061    4.4268 C.ar      1 <0>        -0.1600
      5 C5          7.8301    0.6705    4.9742 C.ar      1 <0>        -0.1356
      6 C6          9.8122    2.6008    4.8207 C.ar      1 <0>         0.1290
      7 C7          0.1755   -1.0766    0.1327 C.2       1 <0>         0.6664
      8 C8          2.3785   -0.9757    2.2764 C.2       1 <0>         0.6651
      9 C9          5.2968   -1.9145    3.7000 C.2       1 <0>         0.6454
     10 C10        -1.4402    2.7527   -5.8041 C.cat     1 <0>         0.6349
     11 C11         2.4521   -5.3069   -0.2561 C.3       1 <0>        -0.0642
     12 C12         1.2413   -5.9691    0.3982 C.3       1 <0>        -0.0747
     13 C13         1.5734   -2.9393   -0.7647 C.3       1 <0>        -0.0873
     14 C14         1.0938   -4.1277    2.1072 C.3       1 <0>        -0.1371
     15 C15         1.5650   -1.6216    0.0133 C.3       1 <0>         0.0360
     16 C16         2.5597   -3.8106    0.0203 C.3       1 <0>        -0.0720
     17 C17         2.2934   -3.4012    1.4755 C.3       1 <0>         0.1201
     18 C18         1.1411   -5.6363    1.8853 C.3       1 <0>         0.1453
     19 C19         3.8896   -0.8379    6.4377 C.3       1 <0>        -0.0968
     20 C20         2.2599   -2.7349    6.3694 C.3       1 <0>        -0.0986
     21 C21         6.7497   -0.3812    5.0585 C.3       1 <0>        -0.0191
     22 C22        -0.8155    2.0502   -2.2095 C.3       1 <0>        -0.1009
     23 C23        -1.7941    0.8762   -2.3301 C.3       1 <0>        -0.0942
     24 C24         1.9925   -0.8489    4.7298 C.3       1 <0>        -0.0988
     25 C25        -1.0015    3.0414   -3.3563 C.3       1 <0>         0.1966
     26 C26        -2.7214   -1.3050   -1.3187 C.3       1 <0>         0.1128
     27 C27         2.8496   -1.4560    3.6253 C.3       1 <0>         0.0786
     28 C28         6.6400   -1.1984    3.7670 C.3       1 <0>         0.0744
     29 C29         2.4383   -1.2292    6.1562 C.3       1 <0>        -0.0678
     30 C30        -1.7203   -0.1547   -1.1858 C.3       1 <0>         0.1065
     31 N1          2.0322   -1.9586    1.3590 N.am      1 <0>        -0.4315
     32 N2         -1.1926    2.0893   -7.0014 N.pl3     1 <0>        -0.8671
     33 N3         -2.3572    3.7981   -5.7855 N.pl3     1 <0>        -0.8581
     34 N4         -0.3878   -0.7030   -1.0725 N.am      1 <0>        -0.5687
     35 N5          4.2184   -1.0331    3.6724 N.am      1 <0>        -0.5746
     36 N6         -0.7789    2.3814   -4.6207 N.pl3     1 <0>        -0.7533
     37 O1         -0.3509   -1.0007    1.2367 O.2       1 <0>        -0.5843
     38 O2          2.3230    0.2335    2.0409 O.2       1 <0>        -0.6812
     39 O3          5.2019   -3.1398    3.6875 O.2       1 <0>        -0.5788
     40 O4         10.7855    3.5494    4.7469 O.3       1 <0>        -0.4938
     41 O5          2.2611   -6.1715    2.5852 O.3       1 <0>        -0.6030
     42 O6         -2.4752   -2.0231   -2.5206 O.3       1 <0>        -0.5860
     43 O7          7.6677   -2.1787    3.7522 O.3       1 <0>        -0.6021
     44 H1          9.3666   -0.6398    5.7373 H         1 <0>         0.1412
     45 H2          6.4992    2.1814    4.1952 H         1 <0>         0.1451
     46 H3         11.1300    1.0799    5.6003 H         1 <0>         0.1336
     47 H4          8.2654    3.8995    4.0597 H         1 <0>         0.1567
     48 H5          3.3605   -5.7937    0.1218 H         1 <0>         0.0649
     49 H6          2.4319   -5.4897   -1.3370 H         1 <0>         0.0476
     50 H7          0.3241   -5.6545   -0.1129 H         1 <0>         0.0641
     51 H8          1.3294   -7.0545    0.2691 H         1 <0>         0.0484
     52 H9          0.5754   -3.3919   -0.8000 H         1 <0>         0.0596
     53 H10         1.8977   -2.7914   -1.8003 H         1 <0>         0.0757
     54 H11         1.0807   -3.9085    3.1823 H         1 <0>         0.0782
     55 H12         0.1523   -3.7376    1.7002 H         1 <0>         0.0812
     56 H13         2.2202   -0.8626   -0.4249 H         1 <0>         0.0731
     57 H14         3.5726   -3.4842   -0.2571 H         1 <0>         0.0511
     58 H15         3.1875   -3.5701    2.0864 H         1 <0>         0.0753
     59 H16         0.2435   -6.1003    2.3075 H         1 <0>         0.0427
     60 H17         4.2001   -1.1859    7.4289 H         1 <0>         0.0450
     61 H18         4.0203    0.2482    6.4220 H         1 <0>         0.0406
     62 H19         4.5693   -1.2752    5.6986 H         1 <0>         0.0274
     63 H20         2.8852   -3.3113    5.6789 H         1 <0>         0.0476
     64 H21         2.5335   -3.0185    7.3913 H         1 <0>         0.0170
     65 H22         1.2173   -3.0301    6.2104 H         1 <0>         0.0477
     66 H23         5.7901    0.1053    5.2788 H         1 <0>         0.0814
     67 H24         6.9627   -1.0264    5.9201 H         1 <0>         0.0685
     68 H25        -0.9672    2.5721   -1.2575 H         1 <0>         0.1016
     69 H26         0.2183    1.6845   -2.2100 H         1 <0>         0.0660
     70 H27        -1.6130    0.3584   -3.2819 H         1 <0>         0.0512
     71 H28        -2.8171    1.2691   -2.3922 H         1 <0>         0.0454
     72 H29         0.9469   -1.1516    4.5828 H         1 <0>         0.0575
     73 H30         2.0032    0.2464    4.6399 H         1 <0>         0.0743
     74 H31        -0.2967    3.8737   -3.2572 H         1 <0>         0.0662
     75 H32        -2.0142    3.4573   -3.3438 H         1 <0>         0.0622
     76 H33        -3.7565   -0.9478   -1.3308 H         1 <0>         0.0321
     77 H34        -2.6144   -2.0048   -0.4820 H         1 <0>         0.0204
     78 H35         2.8203   -2.5449    3.6159 H         1 <0>         0.0749
     79 H36         6.7551   -0.5663    2.8785 H         1 <0>         0.0719
     80 H37         1.7968   -0.7138    6.8816 H         1 <0>         0.0609
     81 H38        -1.9472    0.3883   -0.2591 H         1 <0>         0.1063
     82 H39        -0.5297    1.3212   -7.0631 H         1 <0>         0.4792
     83 H40        -1.6716    2.3596   -7.8572 H         1 <0>         0.4819
     84 H41        -2.5619    4.3046   -4.9275 H         1 <0>         0.4802
     85 H42        -2.8482    4.0830   -6.6295 H         1 <0>         0.4826
     86 H43         0.1607   -0.8193   -1.9192 H         1 <0>         0.3101
     87 H44         4.4137   -0.0309    3.6864 H         1 <0>         0.3087
     88 H45        -0.1122    1.6030   -4.6913 H         1 <0>         0.4846
     89 H46        11.6422    3.1378    4.5506 H         1 <0>         0.4194
     90 H47         2.7873   -5.4145    2.8873 H         1 <0>         0.4036
     91 H48        -2.8906   -1.5183   -3.2383 H         1 <0>         0.4114
     92 H49         8.3173   -1.9150    4.4243 H         1 <0>         0.3944
@<TRIPOS>BOND
     1    1    3 ar
     2    1    5 ar
     3    2    4 ar
     4    2    5 ar
     5    3    6 ar
     6    4    6 ar
     7    5   21 1
     8    6   40 1
     9    7   15 1
    10    7   34 am
    11    7   37 2
    12    8   27 1
    13    8   31 am
    14    8   38 2
    15    9   28 1
    16    9   35 am
    17    9   39 2
    18   10   32 1
    19   10   33 1
    20   10   36 1
    21   11   12 1
    22   11   16 1
    23   12   18 1
    24   13   15 1
    25   13   16 1
    26   14   17 1
    27   14   18 1
    28   15   31 1
    29   16   17 1
    30   17   31 1
    31   18   41 1
    32   19   29 1
    33   20   29 1
    34   21   28 1
    35   22   23 1
    36   22   25 1
    37   23   30 1
    38   24   27 1
    39   24   29 1
    40   25   36 1
    41   26   30 1
    42   26   42 1
    43   27   35 1
    44   28   43 1
    45   30   34 1
    46    1   44 1
    47    2   45 1
    48    3   46 1
    49    4   47 1
    50   11   48 1
    51   11   49 1
    52   12   50 1
    53   12   51 1
    54   13   52 1
    55   13   53 1
    56   14   54 1
    57   14   55 1
    58   15   56 1
    59   16   57 1
    60   17   58 1
    61   18   59 1
    62   19   60 1
    63   19   61 1
    64   19   62 1
    65   20   63 1
    66   20   64 1
    67   20   65 1
    68   21   66 1
    69   21   67 1
    70   22   68 1
    71   22   69 1
    72   23   70 1
    73   23   71 1
    74   24   72 1
    75   24   73 1
    76   25   74 1
    77   25   75 1
    78   26   76 1
    79   26   77 1
    80   27   78 1
    81   28   79 1
    82   29   80 1
    83   30   81 1
    84   32   82 1
    85   32   83 1
    86   33   84 1
    87   33   85 1
    88   34   86 1
    89   35   87 1
    90   36   88 1
    91   40   89 1
    92   41   90 1
    93   42   91 1
    94   43   92 1
@<TRIPOS>MOLECULE
1a2c_ligand_191
   92    94     0     0     0
SMALL
USER_CHARGES

mmff94s_NoEstat = 115.82
@<TRIPOS>ATOM
      1 C1         -8.8585   -0.7972   -3.1807 C.ar      1 <0>        -0.0708
      2 C2         -8.9942   -2.1202   -1.1638 C.ar      1 <0>        -0.0872
      3 C3        -10.0703   -1.3347   -3.6148 C.ar      1 <0>        -0.2241
      4 C4        -10.2059   -2.6577   -1.5978 C.ar      1 <0>        -0.1600
      5 C5         -8.3368   -1.1971   -1.9611 C.ar      1 <0>        -0.1356
      6 C6        -10.7440   -2.2650   -2.8233 C.ar      1 <0>         0.1290
      7 C7         -0.1674   -1.0853   -0.0424 C.2       1 <0>         0.6664
      8 C8         -2.5997   -3.1326    0.7250 C.2       1 <0>         0.6651
      9 C9         -4.5933   -1.1215   -1.1219 C.2       1 <0>         0.6454
     10 C10        -3.1123    4.6404   -0.5610 C.cat     1 <0>         0.6349
     11 C11         2.0445   -3.7524    0.2047 C.3       1 <0>        -0.0642
     12 C12         2.1951   -5.1517   -0.3975 C.3       1 <0>        -0.0747
     13 C13         0.7864   -2.3272    1.9103 C.3       1 <0>        -0.0873
     14 C14        -0.3466   -4.9962   -0.4055 C.3       1 <0>        -0.1371
     15 C15        -0.4770   -1.8334    1.2187 C.3       1 <0>         0.0360
     16 C16         1.0305   -3.7327    1.3503 C.3       1 <0>        -0.0720
     17 C17        -0.3661   -4.2312    0.9284 C.3       1 <0>         0.1201
     18 C18         0.8694   -5.9135   -0.5141 C.3       1 <0>         0.1453
     19 C19        -5.9631   -0.4404    1.7581 C.3       1 <0>        -0.0968
     20 C20        -3.8887    0.7550    2.4841 C.3       1 <0>        -0.0986
     21 C21        -7.0253   -0.6146   -1.4908 C.3       1 <0>        -0.0191
     22 C22        -0.3657    2.9388    0.0730 C.3       1 <0>        -0.1009
     23 C23         0.9718    2.4190   -0.4671 C.3       1 <0>        -0.0942
     24 C24        -3.8619   -1.7555    2.3678 C.3       1 <0>        -0.0988
     25 C25        -1.4736    2.7918   -0.9676 C.3       1 <0>         0.1966
     26 C26         2.3035    0.4585   -1.4784 C.3       1 <0>         0.1128
     27 C27        -3.3800   -1.8574    0.9254 C.3       1 <0>         0.0786
     28 C28        -5.8260   -1.4472   -1.9560 C.3       1 <0>         0.0744
     29 C29        -4.7285   -0.5135    2.6578 C.3       1 <0>        -0.0678
     30 C30         0.9627    0.9465   -0.9241 C.3       1 <0>         0.1065
     31 N1         -1.2224   -3.0398    0.8850 N.am      1 <0>        -0.4315
     32 N2         -4.3227    5.0824   -0.0372 N.pl3     1 <0>        -0.8671
     33 N3         -2.2847    5.5473   -1.2141 N.pl3     1 <0>        -0.8581
     34 N4          0.5562    0.0753    0.1551 N.am      1 <0>        -0.5687
     35 N5         -4.4491   -1.9660   -0.0233 N.am      1 <0>        -0.5746
     36 N6         -2.7184    3.2966   -0.4387 N.pl3     1 <0>        -0.7533
     37 O1         -0.5544   -1.5275   -1.1177 O.2       1 <0>        -0.5843
     38 O2         -3.1933   -4.1752    0.4418 O.2       1 <0>        -0.6812
     39 O3         -3.8320   -0.1982   -1.4017 O.2       1 <0>        -0.5788
     40 O4        -11.9272   -2.7883   -3.2462 O.3       1 <0>        -0.4938
     41 O5          0.7872   -6.8901    0.5248 O.3       1 <0>        -0.6030
     42 O6          2.6815    1.2516   -2.5959 O.3       1 <0>        -0.5860
     43 O7         -5.5421   -1.1308   -3.3112 O.3       1 <0>        -0.6021
     44 H1         -8.3409   -0.0733   -3.8042 H         1 <0>         0.1412
     45 H2         -8.5826   -2.4319   -0.2073 H         1 <0>         0.1451
     46 H3        -10.4843   -1.0247   -4.5702 H         1 <0>         0.1336
     47 H4        -10.7266   -3.3815   -0.9762 H         1 <0>         0.1567
     48 H5          3.0220   -3.4003    0.5555 H         1 <0>         0.0649
     49 H6          1.7363   -3.0584   -0.5866 H         1 <0>         0.0476
     50 H7          2.6388   -5.0399   -1.3944 H         1 <0>         0.0641
     51 H8          2.9088   -5.7297    0.2024 H         1 <0>         0.0484
     52 H9          1.6439   -1.6583    1.7836 H         1 <0>         0.0596
     53 H10         0.5887   -2.4119    2.9867 H         1 <0>         0.0757
     54 H11        -1.2632   -5.5927   -0.4872 H         1 <0>         0.0782
     55 H12        -0.3526   -4.2949   -1.2498 H         1 <0>         0.0812
     56 H13        -1.0651   -1.1731    1.8629 H         1 <0>         0.0731
     57 H14         1.4245   -4.3763    2.1480 H         1 <0>         0.0511
     58 H15        -0.7725   -4.8823    1.7135 H         1 <0>         0.0753
     59 H16         0.8433   -6.4624   -1.4612 H         1 <0>         0.0427
     60 H17        -6.5181    0.4873    1.9352 H         1 <0>         0.0450
     61 H18        -6.6497   -1.2692    1.9547 H         1 <0>         0.0406
     62 H19        -5.6850   -0.4702    0.6992 H         1 <0>         0.0274
     63 H20        -3.5277    0.8553    1.4548 H         1 <0>         0.0476
     64 H21        -4.4764    1.6472    2.7254 H         1 <0>         0.0170
     65 H22        -3.0188    0.7404    3.1493 H         1 <0>         0.0477
     66 H23        -7.0339   -0.5467   -0.3947 H         1 <0>         0.0814
     67 H24        -6.9566    0.4185   -1.8540 H         1 <0>         0.0685
     68 H25        -0.6484    2.3866    0.9768 H         1 <0>         0.1016
     69 H26        -0.2753    3.9932    0.3603 H         1 <0>         0.0660
     70 H27         1.7402    2.5418    0.3082 H         1 <0>         0.0512
     71 H28         1.2882    3.0521   -1.3060 H         1 <0>         0.0454
     72 H29        -2.9928   -1.7573    3.0396 H         1 <0>         0.0575
     73 H30        -4.4407   -2.6540    2.6237 H         1 <0>         0.0743
     74 H31        -1.6009    1.7390   -1.2410 H         1 <0>         0.0662
     75 H32        -1.2215    3.3457   -1.8778 H         1 <0>         0.0622
     76 H33         2.2598   -0.5896   -1.7925 H         1 <0>         0.0321
     77 H34         3.0888    0.5522   -0.7196 H         1 <0>         0.0204
     78 H35        -2.7366   -1.0282    0.6336 H         1 <0>         0.0749
     79 H36        -6.0312   -2.5223   -1.8898 H         1 <0>         0.0719
     80 H37        -5.0656   -0.5471    3.7011 H         1 <0>         0.0609
     81 H38         0.2159    0.8710   -1.7251 H         1 <0>         0.1063
     82 H39        -4.9602    4.4553    0.4461 H         1 <0>         0.4792
     83 H40        -4.6068    6.0552   -0.1271 H         1 <0>         0.4819
     84 H41        -1.3931    5.2579   -1.6089 H         1 <0>         0.4802
     85 H42        -2.5490    6.5246   -1.3132 H         1 <0>         0.4826
     86 H43         0.8147    0.3282    1.1041 H         1 <0>         0.3101
     87 H44        -5.1428   -2.7027    0.1135 H         1 <0>         0.3087
     88 H45        -3.3673    2.6701    0.0528 H         1 <0>         0.4846
     89 H46       -11.9374   -2.8578   -4.2141 H         1 <0>         0.4194
     90 H47         1.3049   -6.5470    1.2701 H         1 <0>         0.4036
     91 H48         2.1897    0.9107   -3.3603 H         1 <0>         0.4114
     92 H49        -6.3230   -0.6725   -3.6624 H         1 <0>         0.3944
@<TRIPOS>BOND
     1    1    3 ar
     2    1    5 ar
     3    2    4 ar
     4    2    5 ar
     5    3    6 ar
     6    4    6 ar
     7    5   21 1
     8    6   40 1
     9    7   15 1
    10    7   34 am
    11    7   37 2
    12    8   27 1
    13    8   31 am
    14    8   38 2
    15    9   28 1
    16    9   35 am
    17    9   39 2
    18   10   32 1
    19   10   33 1
    20   10   36 1
    21   11   12 1
    22   11   16 1
    23   12   18 1
    24   13   15 1
    25   13   16 1
    26   14   17 1
    27   14   18 1
    28   15   31 1
    29   16   17 1
    30   17   31 1
    31   18   41 1
    32   19   29 1
    33   20   29 1
    34   21   28 1
    35   22   23 1
    36   22   25 1
    37   23   30 1
    38   24   27 1
    39   24   29 1
    40   25   36 1
    41   26   30 1
    42   26   42 1
    43   27   35 1
    44   28   43 1
    45   30   34 1
    46    1   44 1
    47    2   45 1
    48    3   46 1
    49    4   47 1
    50   11   48 1
    51   11   49 1
    52   12   50 1
    53   12   51 1
    54   13   52 1
    55   13   53 1
    56   14   54 1
    57   14   55 1
    58   15   56 1
    59   16   57 1
    60   17   58 1
    61   18   59 1
    62   19   60 1
    63   19   61 1
    64   19   62 1
    65   20   63 1
    66   20   64 1
    67   20   65 1
    68   21   66 1
    69   21   67 1
    70   22   68 1
    71   22   69 1
    72   23   70 1
    73   23   71 1
    74   24   72 1
    75   24   73 1
    76   25   74 1
    77   25   75 1
    78   26   76 1
    79   26   77 1
    80   27   78 1
    81   28   79 1
    82   29   80 1
    83   30   81 1
    84   32   82 1
    85   32   83 1
    86   33   84 1
    87   33   85 1
    88   34   86 1
    89   35   87 1
    90   36   88 1
    91   40   89 1
    92   41   90 1
    93   42   91 1
    94   43   92 1
@<TRIPOS>MOLECULE
1a2c_ligand_192
   92    94     0     0     0
SMALL
USER_CHARGES

mmff94s_NoEstat = 115.89
@<TRIPOS>ATOM
      1 C1         -9.0416   -2.7698   -0.6747 C.ar      1 <0>        -0.0708
      2 C2         -8.5605   -3.3841    1.6118 C.ar      1 <0>        -0.0872
      3 C3        -10.2007   -3.5450   -0.6390 C.ar      1 <0>        -0.2241
      4 C4         -9.7196   -4.1593    1.6475 C.ar      1 <0>        -0.1600
      5 C5         -8.2371   -2.6998    0.4512 C.ar      1 <0>        -0.1356
      6 C6        -10.5397   -4.2397    0.5221 C.ar      1 <0>         0.1290
      7 C7         -0.0512   -1.0561    0.2993 C.2       1 <0>         0.6664
      8 C8         -1.8469   -3.0457    2.1630 C.2       1 <0>         0.6651
      9 C9         -4.4743   -1.9575    0.3333 C.2       1 <0>         0.6454
     10 C10         3.2179    5.7685   -0.5343 C.cat     1 <0>         0.6349
     11 C11         2.5186   -3.1911    0.6823 C.3       1 <0>        -0.0642
     12 C12         2.4580   -4.6414    0.2376 C.3       1 <0>        -0.0747
     13 C13         1.4874   -1.4827    2.2418 C.3       1 <0>        -0.0873
     14 C14         0.4946   -5.0934    1.7133 C.3       1 <0>        -0.1371
     15 C15         0.0412   -1.4176    1.7503 C.3       1 <0>         0.0360
     16 C16         1.8865   -2.9529    2.0632 C.3       1 <0>        -0.0720
     17 C17         0.5665   -3.7001    2.3454 C.3       1 <0>         0.1201
     18 C18         1.0248   -5.1525    0.2868 C.3       1 <0>         0.1453
     19 C19        -5.3726   -0.5418    3.1302 C.3       1 <0>        -0.0968
     20 C20        -3.4397    1.0389    2.9738 C.3       1 <0>        -0.0986
     21 C21        -6.9826   -1.8600    0.4128 C.3       1 <0>        -0.0191
     22 C22         1.3474    3.0593   -0.5807 C.3       1 <0>        -0.1009
     23 C23         0.2513    2.2726   -1.3090 C.3       1 <0>        -0.0942
     24 C24        -2.9973   -1.3585    3.5851 C.3       1 <0>        -0.0988
     25 C25         1.0295    4.5528   -0.5576 C.3       1 <0>         0.1966
     26 C26         1.7383    0.3016   -2.0469 C.3       1 <0>         0.1128
     27 C27        -2.7865   -1.8644    2.1628 C.3       1 <0>         0.0786
     28 C28        -5.7663   -2.6636   -0.0588 C.3       1 <0>         0.0744
     29 C29        -3.9969   -0.1898    3.6979 C.3       1 <0>        -0.0678
     30 C30         0.4555    0.7445   -1.3388 C.3       1 <0>         0.1065
     31 N1         -0.4979   -2.7598    1.9615 N.am      1 <0>        -0.4315
     32 N2          4.2049    6.4572    0.1631 N.pl3     1 <0>        -0.8671
     33 N3          3.3662    5.5731   -1.9032 N.pl3     1 <0>        -0.8581
     34 N4          0.4455    0.1980   -0.0008 N.am      1 <0>        -0.5687
     35 N5         -3.9799   -2.3853    1.5634 N.am      1 <0>        -0.5746
     36 N6          2.0800    5.2710    0.1240 N.pl3     1 <0>        -0.7533
     37 O1         -0.5362   -1.8555   -0.4928 O.2       1 <0>        -0.5843
     38 O2         -2.2998   -4.1783    2.3409 O.2       1 <0>        -0.6812
     39 O3         -3.9527   -1.0962   -0.3713 O.2       1 <0>        -0.5788
     40 O4        -11.6716   -4.9948    0.5574 O.3       1 <0>        -0.4938
     41 O5          0.9879   -6.5072   -0.1510 O.3       1 <0>        -0.6030
     42 O6          1.7296    0.7591   -3.3929 O.3       1 <0>        -0.5860
     43 O7         -5.8033   -2.7691   -1.4747 O.3       1 <0>        -0.6021
     44 H1         -8.7857   -2.2324   -1.5837 H         1 <0>         0.1412
     45 H2         -7.9276   -3.3270    2.4936 H         1 <0>         0.1451
     46 H3        -10.8355   -3.6036   -1.5188 H         1 <0>         0.1336
     47 H4         -9.9788   -4.6975    2.5554 H         1 <0>         0.1567
     48 H5          3.5627   -2.8549    0.7003 H         1 <0>         0.0649
     49 H6          2.0259   -2.5829   -0.0837 H         1 <0>         0.0476
     50 H7          2.8567   -4.7427   -0.7790 H         1 <0>         0.0641
     51 H8          3.1032   -5.2618    0.8729 H         1 <0>         0.0484
     52 H9          2.1569   -0.7868    1.7257 H         1 <0>         0.0596
     53 H10         1.5124   -1.2395    3.3116 H         1 <0>         0.0757
     54 H11         1.0921   -5.7802    2.3299 H         1 <0>         0.0782
     55 H12        -0.5175   -5.5090    1.7393 H         1 <0>         0.0812
     56 H13        -0.5378   -0.6778    2.3126 H         1 <0>         0.0731
     57 H14         2.6304   -3.2407    2.8169 H         1 <0>         0.0511
     58 H15         0.4523   -3.8218    3.4319 H         1 <0>         0.0753
     59 H16         0.3841   -4.5700   -0.3844 H         1 <0>         0.0427
     60 H17        -6.0375    0.3284    3.1563 H         1 <0>         0.0450
     61 H18        -5.8542   -1.3328    3.7128 H         1 <0>         0.0406
     62 H19        -5.2988   -0.8789    2.0908 H         1 <0>         0.0274
     63 H20        -3.3028    0.8425    1.9049 H         1 <0>         0.0476
     64 H21        -4.1178    1.8926    3.0773 H         1 <0>         0.0170
     65 H22        -2.4708    1.3315    3.3922 H         1 <0>         0.0477
     66 H23        -6.7957   -1.4461    1.4127 H         1 <0>         0.0814
     67 H24        -7.1653   -0.9964   -0.2390 H         1 <0>         0.0685
     68 H25         1.4494    2.6994    0.4497 H         1 <0>         0.1016
     69 H26         2.3163    2.9020   -1.0695 H         1 <0>         0.0660
     70 H27         0.1784    2.6377   -2.3425 H         1 <0>         0.0512
     71 H28        -0.7172    2.4951   -0.8432 H         1 <0>         0.0454
     72 H29        -2.0302   -1.0518    4.0061 H         1 <0>         0.0575
     73 H30        -3.3514   -2.1846    4.2177 H         1 <0>         0.0743
     74 H31         0.0800    4.7312   -0.0419 H         1 <0>         0.0662
     75 H32         0.9347    4.9409   -1.5770 H         1 <0>         0.0622
     76 H33         1.8500   -0.7877   -2.0488 H         1 <0>         0.0321
     77 H34         2.6170    0.7313   -1.5524 H         1 <0>         0.0204
     78 H35        -2.3647   -1.1082    1.5019 H         1 <0>         0.0749
     79 H36        -5.7642   -3.6764    0.3613 H         1 <0>         0.0719
     80 H37        -4.1195    0.0762    4.7551 H         1 <0>         0.0609
     81 H38        -0.3978    0.3245   -1.8868 H         1 <0>         0.1063
     82 H39         4.1383    6.6255    1.1634 H         1 <0>         0.4792
     83 H40         5.0277    6.8173   -0.3149 H         1 <0>         0.4819
     84 H41         2.6638    5.0740   -2.4437 H         1 <0>         0.4802
     85 H42         4.1819    5.9233   -2.3998 H         1 <0>         0.4826
     86 H43         0.8216    0.7626    0.7549 H         1 <0>         0.3101
     87 H44        -4.4957   -3.1095    2.0656 H         1 <0>         0.3087
     88 H45         2.0214    5.4435    1.1349 H         1 <0>         0.4846
     89 H46       -11.8523   -5.3712   -0.3187 H         1 <0>         0.4194
     90 H47         1.8515   -6.8926    0.0654 H         1 <0>         0.4036
     91 H48         1.1820    0.1356   -3.8968 H         1 <0>         0.4114
     92 H49        -6.7043   -2.5341   -1.7506 H         1 <0>         0.3944
@<TRIPOS>BOND
     1    1    3 ar
     2    1    5 ar
     3    2    4 ar
     4    2    5 ar
     5    3    6 ar
     6    4    6 ar
     7    5   21 1
     8    6   40 1
     9    7   15 1
    10    7   34 am
    11    7   37 2
    12    8   27 1
    13    8   31 am
    14    8   38 2
    15    9   28 1
    16    9   35 am
    17    9   39 2
    18   10   32 1
    19   10   33 1
    20   10   36 1
    21   11   12 1
    22   11   16 1
    23   12   18 1
    24   13   15 1
    25   13   16 1
    26   14   17 1
    27   14   18 1
    28   15   31 1
    29   16   17 1
    30   17   31 1
    31   18   41 1
    32   19   29 1
    33   20   29 1
    34   21   28 1
    35   22   23 1
    36   22   25 1
    37   23   30 1
    38   24   27 1
    39   24   29 1
    40   25   36 1
    41   26   30 1
    42   26   42 1
    43   27   35 1
    44   28   43 1
    45   30   34 1
    46    1   44 1
    47    2   45 1
    48    3   46 1
    49    4   47 1
    50   11   48 1
    51   11   49 1
    52   12   50 1
    53   12   51 1
    54   13   52 1
    55   13   53 1
    56   14   54 1
    57   14   55 1
    58   15   56 1
    59   16   57 1
    60   17   58 1
    61   18   59 1
    62   19   60 1
    63   19   61 1
    64   19   62 1
    65   20   63 1
    66   20   64 1
    67   20   65 1
    68   21   66 1
    69   21   67 1
    70   22   68 1
    71   22   69 1
    72   23   70 1
    73   23   71 1
    74   24   72 1
    75   24   73 1
    76   25   74 1
    77   25   75 1
    78   26   76 1
    79   26   77 1
    80   27   78 1
    81   28   79 1
    82   29   80 1
    83   30   81 1
    84   32   82 1
    85   32   83 1
    86   33   84 1
    87   33   85 1
    88   34   86 1
    89   35   87 1
    90   36   88 1
    91   40   89 1
    92   41   90 1
    93   42   91 1
    94   43   92 1
@<TRIPOS>MOLECULE
1a2c_ligand_193
   92    94     0     0     0
SMALL
USER_CHARGES

mmff94s_NoEstat = 115.91
@<TRIPOS>ATOM
      1 C1          9.1194    0.3522    5.3691 C.ar      1 <0>        -0.0708
      2 C2          7.5116    1.9345    4.5040 C.ar      1 <0>        -0.0872
      3 C3         10.1172    1.3238    5.2919 C.ar      1 <0>        -0.2241
      4 C4          8.5094    2.9061    4.4268 C.ar      1 <0>        -0.1600
      5 C5          7.8301    0.6705    4.9742 C.ar      1 <0>        -0.1356
      6 C6          9.8122    2.6008    4.8207 C.ar      1 <0>         0.1290
      7 C7          0.1755   -1.0766    0.1327 C.2       1 <0>         0.6664
      8 C8          2.3785   -0.9757    2.2764 C.2       1 <0>         0.6651
      9 C9          5.2968   -1.9145    3.7000 C.2       1 <0>         0.6454
     10 C10         1.4871    4.3839   -2.8835 C.cat     1 <0>         0.6349
     11 C11         2.4521   -5.3069   -0.2561 C.3       1 <0>        -0.0642
     12 C12         1.2413   -5.9691    0.3982 C.3       1 <0>        -0.0747
     13 C13         1.5734   -2.9393   -0.7647 C.3       1 <0>        -0.0873
     14 C14         1.0938   -4.1277    2.1072 C.3       1 <0>        -0.1371
     15 C15         1.5650   -1.6216    0.0133 C.3       1 <0>         0.0360
     16 C16         2.5597   -3.8106    0.0203 C.3       1 <0>        -0.0720
     17 C17         2.2934   -3.4012    1.4755 C.3       1 <0>         0.1201
     18 C18         1.1411   -5.6363    1.8853 C.3       1 <0>         0.1453
     19 C19         3.8896   -0.8379    6.4377 C.3       1 <0>        -0.0968
     20 C20         2.2599   -2.7349    6.3694 C.3       1 <0>        -0.0986
     21 C21         6.7497   -0.3812    5.0585 C.3       1 <0>        -0.0191
     22 C22        -0.3644    2.8488   -0.6052 C.3       1 <0>        -0.1009
     23 C23        -1.2954    1.9500   -1.4274 C.3       1 <0>        -0.0942
     24 C24         1.9925   -0.8489    4.7298 C.3       1 <0>        -0.0988
     25 C25        -0.3322    4.2683   -1.1675 C.3       1 <0>         0.1966
     26 C26        -2.3878   -0.3640   -1.7308 C.3       1 <0>         0.1128
     27 C27         2.8496   -1.4560    3.6253 C.3       1 <0>         0.0786
     28 C28         6.6400   -1.1984    3.7670 C.3       1 <0>         0.0744
     29 C29         2.4383   -1.2292    6.1562 C.3       1 <0>        -0.0678
     30 C30        -1.4370    0.5062   -0.9051 C.3       1 <0>         0.1065
     31 N1          2.0322   -1.9586    1.3590 N.am      1 <0>        -0.4315
     32 N2          1.8898    4.3560   -4.2146 N.pl3     1 <0>        -0.8671
     33 N3          2.4449    4.5492   -1.8888 N.pl3     1 <0>        -0.8581
     34 N4         -0.1481   -0.1440   -0.8342 N.am      1 <0>        -0.5687
     35 N5          4.2184   -1.0331    3.6724 N.am      1 <0>        -0.5746
     36 N6          0.1324    4.2478   -2.5342 N.pl3     1 <0>        -0.7533
     37 O1         -0.5534   -1.4727    1.0347 O.2       1 <0>        -0.5843
     38 O2          2.3230    0.2335    2.0409 O.2       1 <0>        -0.6812
     39 O3          5.2019   -3.1398    3.6875 O.2       1 <0>        -0.5788
     40 O4         10.7855    3.5494    4.7469 O.3       1 <0>        -0.4938
     41 O5          2.2611   -6.1715    2.5852 O.3       1 <0>        -0.6030
     42 O6         -1.9117   -0.4666   -3.0663 O.3       1 <0>        -0.5860
     43 O7          7.6677   -2.1787    3.7522 O.3       1 <0>        -0.6021
     44 H1          9.3666   -0.6398    5.7373 H         1 <0>         0.1412
     45 H2          6.4992    2.1814    4.1952 H         1 <0>         0.1451
     46 H3         11.1300    1.0799    5.6003 H         1 <0>         0.1336
     47 H4          8.2654    3.8995    4.0597 H         1 <0>         0.1567
     48 H5          3.3605   -5.7937    0.1218 H         1 <0>         0.0649
     49 H6          2.4319   -5.4897   -1.3370 H         1 <0>         0.0476
     50 H7          0.3241   -5.6545   -0.1129 H         1 <0>         0.0641
     51 H8          1.3294   -7.0545    0.2691 H         1 <0>         0.0484
     52 H9          0.5754   -3.3919   -0.8000 H         1 <0>         0.0596
     53 H10         1.8977   -2.7914   -1.8003 H         1 <0>         0.0757
     54 H11         1.0807   -3.9085    3.1823 H         1 <0>         0.0782
     55 H12         0.1523   -3.7376    1.7002 H         1 <0>         0.0812
     56 H13         2.2202   -0.8626   -0.4249 H         1 <0>         0.0731
     57 H14         3.5726   -3.4842   -0.2571 H         1 <0>         0.0511
     58 H15         3.1875   -3.5701    2.0864 H         1 <0>         0.0753
     59 H16         0.2435   -6.1003    2.3075 H         1 <0>         0.0427
     60 H17         4.2001   -1.1859    7.4289 H         1 <0>         0.0450
     61 H18         4.0203    0.2482    6.4220 H         1 <0>         0.0406
     62 H19         4.5693   -1.2752    5.6986 H         1 <0>         0.0274
     63 H20         2.8852   -3.3113    5.6789 H         1 <0>         0.0476
     64 H21         2.5335   -3.0185    7.3913 H         1 <0>         0.0170
     65 H22         1.2173   -3.0301    6.2104 H         1 <0>         0.0477
     66 H23         5.7901    0.1053    5.2788 H         1 <0>         0.0814
     67 H24         6.9627   -1.0264    5.9201 H         1 <0>         0.0685
     68 H25        -0.6988    2.8850    0.4382 H         1 <0>         0.1016
     69 H26         0.6522    2.4378   -0.5989 H         1 <0>         0.0660
     70 H27        -0.9322    1.9150   -2.4635 H         1 <0>         0.0512
     71 H28        -2.2895    2.4130   -1.4734 H         1 <0>         0.0454
     72 H29         0.9469   -1.1516    4.5828 H         1 <0>         0.0575
     73 H30         2.0032    0.2464    4.6399 H         1 <0>         0.0743
     74 H31         0.3360    4.8982   -0.5709 H         1 <0>         0.0662
     75 H32        -1.3308    4.7163   -1.1364 H         1 <0>         0.0622
     76 H33        -3.4032    0.0453   -1.7522 H         1 <0>         0.0321
     77 H34        -2.4395   -1.3766   -1.3144 H         1 <0>         0.0204
     78 H35         2.8203   -2.5449    3.6159 H         1 <0>         0.0749
     79 H36         6.7551   -0.5663    2.8785 H         1 <0>         0.0719
     80 H37         1.7968   -0.7138    6.8816 H         1 <0>         0.0609
     81 H38        -1.8404    0.5790    0.1132 H         1 <0>         0.1063
     82 H39         1.2256    4.2355   -4.9747 H         1 <0>         0.4792
     83 H40         2.8708    4.4540   -4.4659 H         1 <0>         0.4819
     84 H41         2.1852    4.5740   -0.9057 H         1 <0>         0.4802
     85 H42         3.4306    4.6508   -2.1186 H         1 <0>         0.4826
     86 H43         0.5534    0.0962   -1.5282 H         1 <0>         0.3101
     87 H44         4.4137   -0.0309    3.6864 H         1 <0>         0.3087
     88 H45        -0.5324    4.1285   -3.3082 H         1 <0>         0.4846
     89 H46        11.6422    3.1378    4.5506 H         1 <0>         0.4194
     90 H47         2.7873   -5.4145    2.8873 H         1 <0>         0.4036
     91 H48        -2.1844    0.3451   -3.5237 H         1 <0>         0.4114
     92 H49         8.3173   -1.9150    4.4243 H         1 <0>         0.3944
@<TRIPOS>BOND
     1    1    3 ar
     2    1    5 ar
     3    2    4 ar
     4    2    5 ar
     5    3    6 ar
     6    4    6 ar
     7    5   21 1
     8    6   40 1
     9    7   15 1
    10    7   34 am
    11    7   37 2
    12    8   27 1
    13    8   31 am
    14    8   38 2
    15    9   28 1
    16    9   35 am
    17    9   39 2
    18   10   32 1
    19   10   33 1
    20   10   36 1
    21   11   12 1
    22   11   16 1
    23   12   18 1
    24   13   15 1
    25   13   16 1
    26   14   17 1
    27   14   18 1
    28   15   31 1
    29   16   17 1
    30   17   31 1
    31   18   41 1
    32   19   29 1
    33   20   29 1
    34   21   28 1
    35   22   23 1
    36   22   25 1
    37   23   30 1
    38   24   27 1
    39   24   29 1
    40   25   36 1
    41   26   30 1
    42   26   42 1
    43   27   35 1
    44   28   43 1
    45   30   34 1
    46    1   44 1
    47    2   45 1
    48    3   46 1
    49    4   47 1
    50   11   48 1
    51   11   49 1
    52   12   50 1
    53   12   51 1
    54   13   52 1
    55   13   53 1
    56   14   54 1
    57   14   55 1
    58   15   56 1
    59   16   57 1
    60   17   58 1
    61   18   59 1
    62   19   60 1
    63   19   61 1
    64   19   62 1
    65   20   63 1
    66   20   64 1
    67   20   65 1
    68   21   66 1
    69   21   67 1
    70   22   68 1
    71   22   69 1
    72   23   70 1
    73   23   71 1
    74   24   72 1
    75   24   73 1
    76   25   74 1
    77   25   75 1
    78   26   76 1
    79   26   77 1
    80   27   78 1
    81   28   79 1
    82   29   80 1
    83   30   81 1
    84   32   82 1
    85   32   83 1
    86   33   84 1
    87   33   85 1
    88   34   86 1
    89   35   87 1
    90   36   88 1
    91   40   89 1
    92   41   90 1
    93   42   91 1
    94   43   92 1
@<TRIPOS>MOLECULE
1a2c_ligand_194
   92    94     0     0     0
SMALL
USER_CHARGES

mmff94s_NoEstat = 116.21
@<TRIPOS>ATOM
      1 C1         -5.5012   -6.8146   -2.1504 C.ar      1 <0>        -0.0708
      2 C2         -3.4323   -6.5023   -3.3583 C.ar      1 <0>        -0.0872
      3 C3         -5.9204   -7.7389   -3.1072 C.ar      1 <0>        -0.2241
      4 C4         -3.8515   -7.4266   -4.3152 C.ar      1 <0>        -0.1600
      5 C5         -4.2629   -6.2087   -2.2887 C.ar      1 <0>        -0.1356
      6 C6         -5.0955   -8.0449   -4.1897 C.ar      1 <0>         0.1290
      7 C7         -0.0512   -1.0561    0.2993 C.2       1 <0>         0.6664
      8 C8         -1.8469   -3.0457    2.1630 C.2       1 <0>         0.6651
      9 C9         -3.4040   -2.7670   -0.8258 C.2       1 <0>         0.6454
     10 C10        -0.9406    0.6782   -6.6110 C.cat     1 <0>         0.6349
     11 C11         2.5186   -3.1911    0.6823 C.3       1 <0>        -0.0642
     12 C12         2.4580   -4.6414    0.2376 C.3       1 <0>        -0.0747
     13 C13         1.4874   -1.4827    2.2418 C.3       1 <0>        -0.0873
     14 C14         0.4946   -5.0934    1.7133 C.3       1 <0>        -0.1371
     15 C15         0.0412   -1.4176    1.7503 C.3       1 <0>         0.0360
     16 C16         1.8865   -2.9529    2.0632 C.3       1 <0>        -0.0720
     17 C17         0.5665   -3.7001    2.3454 C.3       1 <0>         0.1201
     18 C18         1.0248   -5.1525    0.2868 C.3       1 <0>         0.1453
     19 C19        -5.7275   -1.2982    0.9287 C.3       1 <0>        -0.0968
     20 C20        -4.2097    0.6462    1.3473 C.3       1 <0>        -0.0986
     21 C21        -3.8088   -5.2086   -1.2523 C.3       1 <0>        -0.0191
     22 C22        -0.9951    2.0137   -3.0747 C.3       1 <0>        -0.1009
     23 C23        -0.8794    1.4488   -1.6540 C.3       1 <0>        -0.0942
     24 C24        -3.7699   -1.5150    2.5525 C.3       1 <0>        -0.0988
     25 C25        -0.9093    0.9015   -4.1176 C.3       1 <0>         0.1966
     26 C26         1.6856    1.6412   -1.5001 C.3       1 <0>         0.1128
     27 C27        -2.8325   -2.1090    1.5076 C.3       1 <0>         0.0786
     28 C28        -4.2317   -3.7794   -1.6077 C.3       1 <0>         0.0744
     29 C29        -4.8597   -0.5919    1.9712 C.3       1 <0>        -0.0678
     30 C30         0.4555    0.7445   -1.3388 C.3       1 <0>         0.1065
     31 N1         -0.4979   -2.7598    1.9615 N.am      1 <0>        -0.4315
     32 N2         -1.0455    1.2596   -7.8703 N.pl3     1 <0>        -0.8671
     33 N3         -0.7637   -0.6976   -6.5120 N.pl3     1 <0>        -0.8581
     34 N4          0.4455    0.1980   -0.0008 N.am      1 <0>        -0.5687
     35 N5         -3.5026   -2.9419    0.5527 N.am      1 <0>        -0.5746
     36 N6         -1.0107    1.4600   -5.4449 N.pl3     1 <0>        -0.7533
     37 O1         -0.5362   -1.8555   -0.4928 O.2       1 <0>        -0.5843
     38 O2         -2.2659   -3.9924    2.8322 O.2       1 <0>        -0.6812
     39 O3         -2.7407   -1.8909   -1.3761 O.2       1 <0>        -0.5788
     40 O4         -5.5038   -8.9480   -5.1226 O.3       1 <0>        -0.4938
     41 O5          0.9879   -6.5072   -0.1510 O.3       1 <0>        -0.6030
     42 O6          1.5971    2.7470   -0.6113 O.3       1 <0>        -0.5860
     43 O7         -5.5970   -3.6017   -1.2587 O.3       1 <0>        -0.6021
     44 H1         -6.1508   -6.5826   -1.3107 H         1 <0>         0.1412
     45 H2         -2.4612   -6.0256   -3.4640 H         1 <0>         0.1451
     46 H3         -6.8903   -8.2172   -3.0039 H         1 <0>         0.1336
     47 H4         -3.2039   -7.6615   -5.1558 H         1 <0>         0.1567
     48 H5          3.5627   -2.8549    0.7003 H         1 <0>         0.0649
     49 H6          2.0259   -2.5829   -0.0837 H         1 <0>         0.0476
     50 H7          2.8567   -4.7427   -0.7790 H         1 <0>         0.0641
     51 H8          3.1032   -5.2618    0.8729 H         1 <0>         0.0484
     52 H9          2.1569   -0.7868    1.7257 H         1 <0>         0.0596
     53 H10         1.5124   -1.2395    3.3116 H         1 <0>         0.0757
     54 H11         1.0921   -5.7802    2.3299 H         1 <0>         0.0782
     55 H12        -0.5175   -5.5090    1.7393 H         1 <0>         0.0812
     56 H13        -0.5378   -0.6778    2.3126 H         1 <0>         0.0731
     57 H14         2.6304   -3.2407    2.8169 H         1 <0>         0.0511
     58 H15         0.4523   -3.8218    3.4319 H         1 <0>         0.0753
     59 H16         0.3841   -4.5700   -0.3844 H         1 <0>         0.0427
     60 H17        -6.4424   -0.5993    0.4810 H         1 <0>         0.0450
     61 H18        -6.3080   -2.1101    1.3767 H         1 <0>         0.0406
     62 H19        -5.1167   -1.7184    0.1225 H         1 <0>         0.0274
     63 H20        -3.5507    0.3732    0.5159 H         1 <0>         0.0476
     64 H21        -4.9709    1.3343    0.9644 H         1 <0>         0.0170
     65 H22        -3.6139    1.1889    2.0888 H         1 <0>         0.0477
     66 H23        -2.7165   -5.2642   -1.1527 H         1 <0>         0.0814
     67 H24        -4.2138   -5.5125   -0.2789 H         1 <0>         0.0685
     68 H25        -1.9473    2.5434   -3.1941 H         1 <0>         0.1016
     69 H26        -0.1993    2.7456   -3.2583 H         1 <0>         0.0660
     70 H27        -1.7000    0.7382   -1.4859 H         1 <0>         0.0512
     71 H28        -1.0340    2.2618   -0.9330 H         1 <0>         0.0454
     72 H29        -3.1790   -0.9587    3.2928 H         1 <0>         0.0575
     73 H30        -4.2588   -2.3274    3.1083 H         1 <0>         0.0743
     74 H31        -1.7187    0.1787   -3.9697 H         1 <0>         0.0662
     75 H32         0.0401    0.3636   -4.0280 H         1 <0>         0.0622
     76 H33         1.7842    2.0214   -2.5223 H         1 <0>         0.0321
     77 H34         2.5988    1.0866   -1.2555 H         1 <0>         0.0204
     78 H35        -2.2612   -1.3523    0.9714 H         1 <0>         0.0749
     79 H36        -4.1226   -3.5812   -2.6805 H         1 <0>         0.0719
     80 H37        -5.5109   -0.2494    2.7849 H         1 <0>         0.0609
     81 H38         0.5463   -0.0881   -2.0483 H         1 <0>         0.1063
     82 H39        -1.1773    2.2602   -7.9911 H         1 <0>         0.4792
     83 H40        -0.9951    0.6924   -8.7134 H         1 <0>         0.4819
     84 H41        -0.6834   -1.1551   -5.6072 H         1 <0>         0.4802
     85 H42        -0.7090   -1.2825   -7.3424 H         1 <0>         0.4826
     86 H43         0.8216    0.7626    0.7549 H         1 <0>         0.3101
     87 H44        -4.0841   -3.7053    0.9020 H         1 <0>         0.3087
     88 H45        -1.1420    2.4704   -5.5758 H         1 <0>         0.4846
     89 H46        -6.4681   -8.9121   -5.2259 H         1 <0>         0.4194
     90 H47         1.8515   -6.8926    0.0654 H         1 <0>         0.4036
     91 H48         1.0115    3.3975   -1.0313 H         1 <0>         0.4114
     92 H49        -5.9717   -4.4883   -1.1291 H         1 <0>         0.3944
@<TRIPOS>BOND
     1    1    3 ar
     2    1    5 ar
     3    2    4 ar
     4    2    5 ar
     5    3    6 ar
     6    4    6 ar
     7    5   21 1
     8    6   40 1
     9    7   15 1
    10    7   34 am
    11    7   37 2
    12    8   27 1
    13    8   31 am
    14    8   38 2
    15    9   28 1
    16    9   35 am
    17    9   39 2
    18   10   32 1
    19   10   33 1
    20   10   36 1
    21   11   12 1
    22   11   16 1
    23   12   18 1
    24   13   15 1
    25   13   16 1
    26   14   17 1
    27   14   18 1
    28   15   31 1
    29   16   17 1
    30   17   31 1
    31   18   41 1
    32   19   29 1
    33   20   29 1
    34   21   28 1
    35   22   23 1
    36   22   25 1
    37   23   30 1
    38   24   27 1
    39   24   29 1
    40   25   36 1
    41   26   30 1
    42   26   42 1
    43   27   35 1
    44   28   43 1
    45   30   34 1
    46    1   44 1
    47    2   45 1
    48    3   46 1
    49    4   47 1
    50   11   48 1
    51   11   49 1
    52   12   50 1
    53   12   51 1
    54   13   52 1
    55   13   53 1
    56   14   54 1
    57   14   55 1
    58   15   56 1
    59   16   57 1
    60   17   58 1
    61   18   59 1
    62   19   60 1
    63   19   61 1
    64   19   62 1
    65   20   63 1
    66   20   64 1
    67   20   65 1
    68   21   66 1
    69   21   67 1
    70   22   68 1
    71   22   69 1
    72   23   70 1
    73   23   71 1
    74   24   72 1
    75   24   73 1
    76   25   74 1
    77   25   75 1
    78   26   76 1
    79   26   77 1
    80   27   78 1
    81   28   79 1
    82   29   80 1
    83   30   81 1
    84   32   82 1
    85   32   83 1
    86   33   84 1
    87   33   85 1
    88   34   86 1
    89   35   87 1
    90   36   88 1
    91   40   89 1
    92   41   90 1
    93   42   91 1
    94   43   92 1
@<TRIPOS>MOLECULE
1a2c_ligand_195
   92    94     0     0     0
SMALL
USER_CHARGES

mmff94s_NoEstat = 116.30
@<TRIPOS>ATOM
      1 C1         -8.7474   -4.8377   -0.2783 C.ar      1 <0>        -0.0708
      2 C2         -7.7847   -5.1607    1.9139 C.ar      1 <0>        -0.0872
      3 C3         -9.7347   -5.7778    0.0167 C.ar      1 <0>        -0.2241
      4 C4         -8.7720   -6.1008    2.2090 C.ar      1 <0>        -0.1600
      5 C5         -7.7856   -4.5418    0.6742 C.ar      1 <0>        -0.1356
      6 C6         -9.7470   -6.4094    1.2604 C.ar      1 <0>         0.1290
      7 C7         -0.0512   -1.0561    0.2993 C.2       1 <0>         0.6664
      8 C8         -1.8469   -3.0457    2.1630 C.2       1 <0>         0.6651
      9 C9         -4.2799   -3.2353   -0.1780 C.2       1 <0>         0.6454
     10 C10        -2.7746    6.0237    0.0845 C.cat     1 <0>         0.6349
     11 C11         2.5186   -3.1911    0.6823 C.3       1 <0>        -0.0642
     12 C12         2.4580   -4.6414    0.2376 C.3       1 <0>        -0.0747
     13 C13         1.4874   -1.4827    2.2418 C.3       1 <0>        -0.0873
     14 C14         0.4946   -5.0934    1.7133 C.3       1 <0>        -0.1371
     15 C15         0.0412   -1.4176    1.7503 C.3       1 <0>         0.0360
     16 C16         1.8865   -2.9529    2.0632 C.3       1 <0>        -0.0720
     17 C17         0.5665   -3.7001    2.3454 C.3       1 <0>         0.1201
     18 C18         1.0248   -5.1525    0.2868 C.3       1 <0>         0.1453
     19 C19        -5.5746   -0.7475    1.4860 C.3       1 <0>        -0.0968
     20 C20        -3.7112    0.7464    0.7408 C.3       1 <0>        -0.0986
     21 C21        -6.7172   -3.5235    0.3550 C.3       1 <0>        -0.0191
     22 C22        -1.0374    2.7415   -0.6235 C.3       1 <0>        -0.1009
     23 C23         0.2513    2.2726   -1.3090 C.3       1 <0>        -0.0942
     24 C24        -3.2372   -1.0062    2.4788 C.3       1 <0>        -0.0988
     25 C25        -1.1758    4.2607   -0.6924 C.3       1 <0>         0.1966
     26 C26         1.7383    0.3016   -2.0469 C.3       1 <0>         0.1128
     27 C27        -2.8325   -2.1090    1.5076 C.3       1 <0>         0.0786
     28 C28        -5.4811   -4.1668   -0.2823 C.3       1 <0>         0.0744
     29 C29        -4.2955   -0.0321    1.9228 C.3       1 <0>        -0.0678
     30 C30         0.4555    0.7445   -1.3388 C.3       1 <0>         0.1065
     31 N1         -0.4979   -2.7598    1.9615 N.am      1 <0>        -0.4315
     32 N2         -3.9558    6.3783    0.7278 N.pl3     1 <0>        -0.8671
     33 N3         -1.9667    7.0223   -0.4484 N.pl3     1 <0>        -0.8581
     34 N4          0.4455    0.1980   -0.0008 N.am      1 <0>        -0.5687
     35 N5         -3.9193   -2.9688    1.1410 N.am      1 <0>        -0.5746
     36 N6         -2.3904    4.6766   -0.0323 N.pl3     1 <0>        -0.7533
     37 O1         -0.5362   -1.8555   -0.4928 O.2       1 <0>        -0.5843
     38 O2         -2.2659   -3.9924    2.8322 O.2       1 <0>        -0.6812
     39 O3         -3.7165   -2.7712   -1.1667 O.2       1 <0>        -0.5788
     40 O4        -10.7114   -7.3255    1.5489 O.3       1 <0>        -0.4938
     41 O5          0.9879   -6.5072   -0.1510 O.3       1 <0>        -0.6030
     42 O6          2.8703    0.8436   -1.3793 O.3       1 <0>        -0.5860
     43 O7         -5.7416   -4.4039   -1.6583 O.3       1 <0>        -0.6021
     44 H1         -8.7458   -4.3511   -1.2499 H         1 <0>         0.1412
     45 H2         -7.0291   -4.9263    2.6593 H         1 <0>         0.1451
     46 H3        -10.4915   -6.0137   -0.7262 H         1 <0>         0.1336
     47 H4         -8.7768   -6.5888    3.1801 H         1 <0>         0.1567
     48 H5          3.5627   -2.8549    0.7003 H         1 <0>         0.0649
     49 H6          2.0259   -2.5829   -0.0837 H         1 <0>         0.0476
     50 H7          2.8567   -4.7427   -0.7790 H         1 <0>         0.0641
     51 H8          3.1032   -5.2618    0.8729 H         1 <0>         0.0484
     52 H9          2.1569   -0.7868    1.7257 H         1 <0>         0.0596
     53 H10         1.5124   -1.2395    3.3116 H         1 <0>         0.0757
     54 H11         1.0921   -5.7802    2.3299 H         1 <0>         0.0782
     55 H12        -0.5175   -5.5090    1.7393 H         1 <0>         0.0812
     56 H13        -0.5378   -0.6778    2.3126 H         1 <0>         0.0731
     57 H14         2.6304   -3.2407    2.8169 H         1 <0>         0.0511
     58 H15         0.4523   -3.8218    3.4319 H         1 <0>         0.0753
     59 H16         0.3841   -4.5700   -0.3844 H         1 <0>         0.0427
     60 H17        -6.2768   -0.0422    1.0282 H         1 <0>         0.0450
     61 H18        -6.0867   -1.2049    2.3377 H         1 <0>         0.0406
     62 H19        -5.3599   -1.5330    0.7535 H         1 <0>         0.0274
     63 H20        -3.4369    0.0757   -0.0807 H         1 <0>         0.0476
     64 H21        -4.4352    1.4732    0.3573 H         1 <0>         0.0170
     65 H22        -2.8146    1.2981    1.0427 H         1 <0>         0.0477
     66 H23        -6.4347   -2.9971    1.2765 H         1 <0>         0.0814
     67 H24        -7.1526   -2.7613   -0.3034 H         1 <0>         0.0685
     68 H25        -1.9092    2.2808   -1.1025 H         1 <0>         0.1016
     69 H26        -1.0467    2.4234    0.4259 H         1 <0>         0.0660
     70 H27         1.1110    2.7323   -0.8028 H         1 <0>         0.0512
     71 H28         0.2685    2.6560   -2.3373 H         1 <0>         0.0454
     72 H29        -2.3434   -0.4411    2.7760 H         1 <0>         0.0575
     73 H30        -3.6273   -1.4576    3.4018 H         1 <0>         0.0743
     74 H31        -1.2027    4.5928   -1.7356 H         1 <0>         0.0662
     75 H32        -0.3220    4.7463   -0.2087 H         1 <0>         0.0622
     76 H33         1.7614    0.6251   -3.0928 H         1 <0>         0.0321
     77 H34         1.8289   -0.7905   -2.0281 H         1 <0>         0.0204
     78 H35        -2.3687   -1.7253    0.5998 H         1 <0>         0.0749
     79 H36        -5.2354   -5.1248    0.1910 H         1 <0>         0.0719
     80 H37        -4.5575    0.6951    2.7011 H         1 <0>         0.0609
     81 H38        -0.3978    0.3245   -1.8868 H         1 <0>         0.1063
     82 H39        -4.5782    5.6828    1.1306 H         1 <0>         0.4792
     83 H40        -4.2329    7.3536    0.8111 H         1 <0>         0.4819
     84 H41        -1.0966    6.7983   -0.9251 H         1 <0>         0.4802
     85 H42        -2.2244    8.0035   -0.3744 H         1 <0>         0.4826
     86 H43         0.8216    0.7626    0.7549 H         1 <0>         0.3101
     87 H44        -4.4587   -3.4100    1.8874 H         1 <0>         0.3087
     88 H45        -3.0238    3.9804    0.3791 H         1 <0>         0.4846
     89 H46       -10.9730   -7.8029    0.7455 H         1 <0>         0.4194
     90 H47         1.8515   -6.8926    0.0654 H         1 <0>         0.4036
     91 H48         2.9636    1.7601   -1.6856 H         1 <0>         0.4114
     92 H49        -6.7032   -4.3382   -1.7776 H         1 <0>         0.3944
@<TRIPOS>BOND
     1    1    3 ar
     2    1    5 ar
     3    2    4 ar
     4    2    5 ar
     5    3    6 ar
     6    4    6 ar
     7    5   21 1
     8    6   40 1
     9    7   15 1
    10    7   34 am
    11    7   37 2
    12    8   27 1
    13    8   31 am
    14    8   38 2
    15    9   28 1
    16    9   35 am
    17    9   39 2
    18   10   32 1
    19   10   33 1
    20   10   36 1
    21   11   12 1
    22   11   16 1
    23   12   18 1
    24   13   15 1
    25   13   16 1
    26   14   17 1
    27   14   18 1
    28   15   31 1
    29   16   17 1
    30   17   31 1
    31   18   41 1
    32   19   29 1
    33   20   29 1
    34   21   28 1
    35   22   23 1
    36   22   25 1
    37   23   30 1
    38   24   27 1
    39   24   29 1
    40   25   36 1
    41   26   30 1
    42   26   42 1
    43   27   35 1
    44   28   43 1
    45   30   34 1
    46    1   44 1
    47    2   45 1
    48    3   46 1
    49    4   47 1
    50   11   48 1
    51   11   49 1
    52   12   50 1
    53   12   51 1
    54   13   52 1
    55   13   53 1
    56   14   54 1
    57   14   55 1
    58   15   56 1
    59   16   57 1
    60   17   58 1
    61   18   59 1
    62   19   60 1
    63   19   61 1
    64   19   62 1
    65   20   63 1
    66   20   64 1
    67   20   65 1
    68   21   66 1
    69   21   67 1
    70   22   68 1
    71   22   69 1
    72   23   70 1
    73   23   71 1
    74   24   72 1
    75   24   73 1
    76   25   74 1
    77   25   75 1
    78   26   76 1
    79   26   77 1
    80   27   78 1
    81   28   79 1
    82   29   80 1
    83   30   81 1
    84   32   82 1
    85   32   83 1
    86   33   84 1
    87   33   85 1
    88   34   86 1
    89   35   87 1
    90   36   88 1
    91   40   89 1
    92   41   90 1
    93   42   91 1
    94   43   92 1
@<TRIPOS>MOLECULE
1a2c_ligand_196
   92    94     0     0     0
SMALL
USER_CHARGES

mmff94s_NoEstat = 116.36
@<TRIPOS>ATOM
      1 C1         -5.5012   -6.8146   -2.1504 C.ar      1 <0>        -0.0708
      2 C2         -3.4323   -6.5023   -3.3583 C.ar      1 <0>        -0.0872
      3 C3         -5.9204   -7.7389   -3.1072 C.ar      1 <0>        -0.2241
      4 C4         -3.8515   -7.4266   -4.3152 C.ar      1 <0>        -0.1600
      5 C5         -4.2629   -6.2087   -2.2887 C.ar      1 <0>        -0.1356
      6 C6         -5.0955   -8.0449   -4.1897 C.ar      1 <0>         0.1290
      7 C7         -0.0512   -1.0561    0.2993 C.2       1 <0>         0.6664
      8 C8         -1.8469   -3.0457    2.1630 C.2       1 <0>         0.6651
      9 C9         -3.4040   -2.7670   -0.8258 C.2       1 <0>         0.6454
     10 C10        -2.1772   -1.1627   -4.7494 C.cat     1 <0>         0.6349
     11 C11         2.5186   -3.1911    0.6823 C.3       1 <0>        -0.0642
     12 C12         2.4580   -4.6414    0.2376 C.3       1 <0>        -0.0747
     13 C13         1.4874   -1.4827    2.2418 C.3       1 <0>        -0.0873
     14 C14         0.4946   -5.0934    1.7133 C.3       1 <0>        -0.1371
     15 C15         0.0412   -1.4176    1.7503 C.3       1 <0>         0.0360
     16 C16         1.8865   -2.9529    2.0632 C.3       1 <0>        -0.0720
     17 C17         0.5665   -3.7001    2.3454 C.3       1 <0>         0.1201
     18 C18         1.0248   -5.1525    0.2868 C.3       1 <0>         0.1453
     19 C19        -5.7275   -1.2982    0.9287 C.3       1 <0>        -0.0968
     20 C20        -4.2097    0.6462    1.3473 C.3       1 <0>        -0.0986
     21 C21        -3.8088   -5.2086   -1.2523 C.3       1 <0>        -0.0191
     22 C22        -0.9951    2.0137   -3.0747 C.3       1 <0>        -0.1009
     23 C23        -0.8794    1.4488   -1.6540 C.3       1 <0>        -0.0942
     24 C24        -3.7699   -1.5150    2.5525 C.3       1 <0>        -0.0988
     25 C25        -0.9093    0.9015   -4.1176 C.3       1 <0>         0.1966
     26 C26         1.6856    1.6412   -1.5001 C.3       1 <0>         0.1128
     27 C27        -2.8325   -2.1090    1.5076 C.3       1 <0>         0.0786
     28 C28        -4.2317   -3.7794   -1.6077 C.3       1 <0>         0.0744
     29 C29        -4.8597   -0.5919    1.9712 C.3       1 <0>        -0.0678
     30 C30         0.4555    0.7445   -1.3388 C.3       1 <0>         0.1065
     31 N1         -0.4979   -2.7598    1.9615 N.am      1 <0>        -0.4315
     32 N2         -3.2267   -2.0473   -4.5232 N.pl3     1 <0>        -0.8671
     33 N3         -1.3100   -1.3971   -5.8110 N.pl3     1 <0>        -0.8581
     34 N4          0.4455    0.1980   -0.0008 N.am      1 <0>        -0.5687
     35 N5         -3.5026   -2.9419    0.5527 N.am      1 <0>        -0.5746
     36 N6         -1.9845   -0.0421   -3.9232 N.pl3     1 <0>        -0.7533
     37 O1         -0.5362   -1.8555   -0.4928 O.2       1 <0>        -0.5843
     38 O2         -2.2659   -3.9924    2.8322 O.2       1 <0>        -0.6812
     39 O3         -2.7407   -1.8909   -1.3761 O.2       1 <0>        -0.5788
     40 O4         -5.5038   -8.9480   -5.1226 O.3       1 <0>        -0.4938
     41 O5          0.9879   -6.5072   -0.1510 O.3       1 <0>        -0.6030
     42 O6          1.5971    2.7470   -0.6113 O.3       1 <0>        -0.5860
     43 O7         -5.5970   -3.6017   -1.2587 O.3       1 <0>        -0.6021
     44 H1         -6.1508   -6.5826   -1.3107 H         1 <0>         0.1412
     45 H2         -2.4612   -6.0256   -3.4640 H         1 <0>         0.1451
     46 H3         -6.8903   -8.2172   -3.0039 H         1 <0>         0.1336
     47 H4         -3.2039   -7.6615   -5.1558 H         1 <0>         0.1567
     48 H5          3.5627   -2.8549    0.7003 H         1 <0>         0.0649
     49 H6          2.0259   -2.5829   -0.0837 H         1 <0>         0.0476
     50 H7          2.8567   -4.7427   -0.7790 H         1 <0>         0.0641
     51 H8          3.1032   -5.2618    0.8729 H         1 <0>         0.0484
     52 H9          2.1569   -0.7868    1.7257 H         1 <0>         0.0596
     53 H10         1.5124   -1.2395    3.3116 H         1 <0>         0.0757
     54 H11         1.0921   -5.7802    2.3299 H         1 <0>         0.0782
     55 H12        -0.5175   -5.5090    1.7393 H         1 <0>         0.0812
     56 H13        -0.5378   -0.6778    2.3126 H         1 <0>         0.0731
     57 H14         2.6304   -3.2407    2.8169 H         1 <0>         0.0511
     58 H15         0.4523   -3.8218    3.4319 H         1 <0>         0.0753
     59 H16         0.3841   -4.5700   -0.3844 H         1 <0>         0.0427
     60 H17        -6.4424   -0.5993    0.4810 H         1 <0>         0.0450
     61 H18        -6.3080   -2.1101    1.3767 H         1 <0>         0.0406
     62 H19        -5.1167   -1.7184    0.1225 H         1 <0>         0.0274
     63 H20        -3.5507    0.3732    0.5159 H         1 <0>         0.0476
     64 H21        -4.9709    1.3343    0.9644 H         1 <0>         0.0170
     65 H22        -3.6139    1.1889    2.0888 H         1 <0>         0.0477
     66 H23        -2.7165   -5.2642   -1.1527 H         1 <0>         0.0814
     67 H24        -4.2138   -5.5125   -0.2789 H         1 <0>         0.0685
     68 H25        -1.9473    2.5434   -3.1941 H         1 <0>         0.1016
     69 H26        -0.1993    2.7456   -3.2583 H         1 <0>         0.0660
     70 H27        -1.7000    0.7382   -1.4859 H         1 <0>         0.0512
     71 H28        -1.0340    2.2618   -0.9330 H         1 <0>         0.0454
     72 H29        -3.1790   -0.9587    3.2928 H         1 <0>         0.0575
     73 H30        -4.2588   -2.3274    3.1083 H         1 <0>         0.0743
     74 H31         0.0481    0.3762   -4.0351 H         1 <0>         0.0662
     75 H32        -0.9770    1.3169   -5.1283 H         1 <0>         0.0622
     76 H33         1.7842    2.0214   -2.5223 H         1 <0>         0.0321
     77 H34         2.5988    1.0866   -1.2555 H         1 <0>         0.0204
     78 H35        -2.2612   -1.3523    0.9714 H         1 <0>         0.0749
     79 H36        -4.1226   -3.5812   -2.6805 H         1 <0>         0.0719
     80 H37        -5.5109   -0.2494    2.7849 H         1 <0>         0.0609
     81 H38         0.5463   -0.0881   -2.0483 H         1 <0>         0.1063
     82 H39        -3.8838   -1.9173   -3.7587 H         1 <0>         0.4792
     83 H40        -3.3646   -2.8583   -5.1217 H         1 <0>         0.4819
     84 H41        -0.5324   -0.7707   -6.0048 H         1 <0>         0.4802
     85 H42        -1.4312   -2.2010   -6.4224 H         1 <0>         0.4826
     86 H43         0.8216    0.7626    0.7549 H         1 <0>         0.3101
     87 H44        -4.0841   -3.7053    0.9020 H         1 <0>         0.3087
     88 H45        -2.6541    0.0831   -3.1543 H         1 <0>         0.4846
     89 H46        -6.4681   -8.9121   -5.2259 H         1 <0>         0.4194
     90 H47         1.8515   -6.8926    0.0654 H         1 <0>         0.4036
     91 H48         1.0115    3.3975   -1.0313 H         1 <0>         0.4114
     92 H49        -5.9717   -4.4883   -1.1291 H         1 <0>         0.3944
@<TRIPOS>BOND
     1    1    3 ar
     2    1    5 ar
     3    2    4 ar
     4    2    5 ar
     5    3    6 ar
     6    4    6 ar
     7    5   21 1
     8    6   40 1
     9    7   15 1
    10    7   34 am
    11    7   37 2
    12    8   27 1
    13    8   31 am
    14    8   38 2
    15    9   28 1
    16    9   35 am
    17    9   39 2
    18   10   32 1
    19   10   33 1
    20   10   36 1
    21   11   12 1
    22   11   16 1
    23   12   18 1
    24   13   15 1
    25   13   16 1
    26   14   17 1
    27   14   18 1
    28   15   31 1
    29   16   17 1
    30   17   31 1
    31   18   41 1
    32   19   29 1
    33   20   29 1
    34   21   28 1
    35   22   23 1
    36   22   25 1
    37   23   30 1
    38   24   27 1
    39   24   29 1
    40   25   36 1
    41   26   30 1
    42   26   42 1
    43   27   35 1
    44   28   43 1
    45   30   34 1
    46    1   44 1
    47    2   45 1
    48    3   46 1
    49    4   47 1
    50   11   48 1
    51   11   49 1
    52   12   50 1
    53   12   51 1
    54   13   52 1
    55   13   53 1
    56   14   54 1
    57   14   55 1
    58   15   56 1
    59   16   57 1
    60   17   58 1
    61   18   59 1
    62   19   60 1
    63   19   61 1
    64   19   62 1
    65   20   63 1
    66   20   64 1
    67   20   65 1
    68   21   66 1
    69   21   67 1
    70   22   68 1
    71   22   69 1
    72   23   70 1
    73   23   71 1
    74   24   72 1
    75   24   73 1
    76   25   74 1
    77   25   75 1
    78   26   76 1
    79   26   77 1
    80   27   78 1
    81   28   79 1
    82   29   80 1
    83   30   81 1
    84   32   82 1
    85   32   83 1
    86   33   84 1
    87   33   85 1
    88   34   86 1
    89   35   87 1
    90   36   88 1
    91   40   89 1
    92   41   90 1
    93   42   91 1
    94   43   92 1
@<TRIPOS>MOLECULE
1a2c_ligand_197
   92    94     0     0     0
SMALL
USER_CHARGES

mmff94s_NoEstat = 116.37
@<TRIPOS>ATOM
      1 C1         -8.6592   -0.8902   -3.1753 C.ar      1 <0>        -0.0708
      2 C2         -8.7874   -2.2936   -1.2130 C.ar      1 <0>        -0.0872
      3 C3         -9.9266   -1.3218   -3.5668 C.ar      1 <0>        -0.2241
      4 C4        -10.0547   -2.7252   -1.6044 C.ar      1 <0>        -0.1600
      5 C5         -8.1067   -1.3818   -2.0037 C.ar      1 <0>        -0.1356
      6 C6        -10.6243   -2.2394   -2.7813 C.ar      1 <0>         0.1290
      7 C7         -0.1674   -1.0853   -0.0424 C.2       1 <0>         0.6664
      8 C8         -2.5997   -3.1326    0.7250 C.2       1 <0>         0.6651
      9 C9         -4.3299   -1.6044   -1.3634 C.2       1 <0>         0.6454
     10 C10        -0.6480    5.8924   -1.5901 C.cat     1 <0>         0.6349
     11 C11         2.0445   -3.7524    0.2047 C.3       1 <0>        -0.0642
     12 C12         2.1951   -5.1517   -0.3975 C.3       1 <0>        -0.0747
     13 C13         0.7864   -2.3272    1.9103 C.3       1 <0>        -0.0873
     14 C14        -0.3466   -4.9962   -0.4055 C.3       1 <0>        -0.1371
     15 C15        -0.4770   -1.8334    1.2187 C.3       1 <0>         0.0360
     16 C16         1.0305   -3.7327    1.3503 C.3       1 <0>        -0.0720
     17 C17        -0.3661   -4.2312    0.9284 C.3       1 <0>         0.1201
     18 C18         0.8694   -5.9135   -0.5141 C.3       1 <0>         0.1453
     19 C19        -5.9631   -0.4404    1.7581 C.3       1 <0>        -0.0968
     20 C20        -3.8887    0.7550    2.4841 C.3       1 <0>        -0.0986
     21 C21        -6.7349   -0.9140   -1.5796 C.3       1 <0>        -0.0191
     22 C22        -0.5019    2.9290   -0.1163 C.3       1 <0>        -0.1009
     23 C23        -0.1464    1.9654   -1.2545 C.3       1 <0>        -0.0942
     24 C24        -3.8619   -1.7555    2.3678 C.3       1 <0>        -0.0988
     25 C25        -1.6433    3.8598   -0.5198 C.3       1 <0>         0.1966
     26 C26         2.3079    1.5842   -0.5680 C.3       1 <0>         0.1128
     27 C27        -3.3800   -1.8574    0.9254 C.3       1 <0>         0.0786
     28 C28        -5.6231   -1.8048   -2.1437 C.3       1 <0>         0.0744
     29 C29        -4.7285   -0.5135    2.6578 C.3       1 <0>        -0.0678
     30 C30         0.9627    0.9465   -0.9241 C.3       1 <0>         0.1065
     31 N1         -1.2224   -3.0398    0.8850 N.am      1 <0>        -0.4315
     32 N2         -0.2982    6.6009   -2.7349 N.pl3     1 <0>        -0.8671
     33 N3         -0.3807    6.4455   -0.3424 N.pl3     1 <0>        -0.8581
     34 N4          0.5562    0.0753    0.1551 N.am      1 <0>        -0.5687
     35 N5         -4.4491   -1.9660   -0.0233 N.am      1 <0>        -0.5746
     36 N6         -1.2645    4.6324   -1.6789 N.pl3     1 <0>        -0.7533
     37 O1         -0.5544   -1.5275   -1.1177 O.2       1 <0>        -0.5843
     38 O2         -3.1933   -4.1752    0.4418 O.2       1 <0>        -0.6812
     39 O3         -3.3092   -1.1565   -1.8810 O.2       1 <0>        -0.5788
     40 O4        -11.8617   -2.6593   -3.1624 O.3       1 <0>        -0.4938
     41 O5          0.7872   -6.8901    0.5248 O.3       1 <0>        -0.6030
     42 O6          3.2667    0.5701   -0.2978 O.3       1 <0>        -0.5860
     43 O7         -5.3859   -1.4456   -3.4972 O.3       1 <0>        -0.6021
     44 H1         -8.1233   -0.1754   -3.7938 H         1 <0>         0.1412
     45 H2         -8.3515   -2.6774   -0.2942 H         1 <0>         0.1451
     46 H3        -10.3649   -0.9396   -4.4844 H         1 <0>         0.1336
     47 H4        -10.5938   -3.4396   -0.9877 H         1 <0>         0.1567
     48 H5          3.0220   -3.4003    0.5555 H         1 <0>         0.0649
     49 H6          1.7363   -3.0584   -0.5866 H         1 <0>         0.0476
     50 H7          2.6388   -5.0399   -1.3944 H         1 <0>         0.0641
     51 H8          2.9088   -5.7297    0.2024 H         1 <0>         0.0484
     52 H9          1.6439   -1.6583    1.7836 H         1 <0>         0.0596
     53 H10         0.5887   -2.4119    2.9867 H         1 <0>         0.0757
     54 H11        -1.2632   -5.5927   -0.4872 H         1 <0>         0.0782
     55 H12        -0.3526   -4.2949   -1.2498 H         1 <0>         0.0812
     56 H13        -1.0651   -1.1731    1.8629 H         1 <0>         0.0731
     57 H14         1.4245   -4.3763    2.1480 H         1 <0>         0.0511
     58 H15        -0.7725   -4.8823    1.7135 H         1 <0>         0.0753
     59 H16         0.8433   -6.4624   -1.4612 H         1 <0>         0.0427
     60 H17        -6.5181    0.4873    1.9352 H         1 <0>         0.0450
     61 H18        -6.6497   -1.2692    1.9547 H         1 <0>         0.0406
     62 H19        -5.6850   -0.4702    0.6992 H         1 <0>         0.0274
     63 H20        -3.5277    0.8553    1.4548 H         1 <0>         0.0476
     64 H21        -4.4764    1.6472    2.7254 H         1 <0>         0.0170
     65 H22        -3.0188    0.7404    3.1493 H         1 <0>         0.0477
     66 H23        -6.6835   -0.8970   -0.4827 H         1 <0>         0.0814
     67 H24        -6.6110    0.1278   -1.9010 H         1 <0>         0.0685
     68 H25        -0.7979    2.3662    0.7766 H         1 <0>         0.1016
     69 H26         0.3738    3.5279    0.1617 H         1 <0>         0.0660
     70 H27         0.1630    2.5497   -2.1317 H         1 <0>         0.0512
     71 H28        -1.0510    1.4234   -1.5589 H         1 <0>         0.0454
     72 H29        -2.9928   -1.7573    3.0396 H         1 <0>         0.0575
     73 H30        -4.4407   -2.6540    2.6237 H         1 <0>         0.0743
     74 H31        -1.8861    4.5417    0.3020 H         1 <0>         0.0662
     75 H32        -2.5443    3.2834   -0.7535 H         1 <0>         0.0622
     76 H33         2.2328    2.2366    0.3083 H         1 <0>         0.0321
     77 H34         2.6813    2.1842   -1.4058 H         1 <0>         0.0204
     78 H35        -2.7366   -1.0282    0.6336 H         1 <0>         0.0749
     79 H36        -5.9009   -2.8650   -2.1131 H         1 <0>         0.0719
     80 H37        -5.0656   -0.5471    3.7011 H         1 <0>         0.0609
     81 H38         1.1044    0.3339   -1.8239 H         1 <0>         0.1063
     82 H39        -0.4723    6.2355   -3.6673 H         1 <0>         0.4792
     83 H40         0.1486    7.5126   -2.6690 H         1 <0>         0.4819
     84 H41        -0.6231    5.9547    0.5148 H         1 <0>         0.4802
     85 H42         0.0636    7.3563   -0.2545 H         1 <0>         0.4826
     86 H43         0.8147    0.3282    1.1041 H         1 <0>         0.3101
     87 H44        -5.3471   -2.3283    0.3008 H         1 <0>         0.3087
     88 H45        -1.4388    4.2713   -2.6247 H         1 <0>         0.4846
     89 H46       -11.9255   -2.6826   -4.1305 H         1 <0>         0.4194
     90 H47         1.3049   -6.5470    1.2701 H         1 <0>         0.4036
     91 H48         3.1132    0.2758    0.6145 H         1 <0>         0.4114
     92 H49        -6.1488   -0.9186   -3.7860 H         1 <0>         0.3944
@<TRIPOS>BOND
     1    1    3 ar
     2    1    5 ar
     3    2    4 ar
     4    2    5 ar
     5    3    6 ar
     6    4    6 ar
     7    5   21 1
     8    6   40 1
     9    7   15 1
    10    7   34 am
    11    7   37 2
    12    8   27 1
    13    8   31 am
    14    8   38 2
    15    9   28 1
    16    9   35 am
    17    9   39 2
    18   10   32 1
    19   10   33 1
    20   10   36 1
    21   11   12 1
    22   11   16 1
    23   12   18 1
    24   13   15 1
    25   13   16 1
    26   14   17 1
    27   14   18 1
    28   15   31 1
    29   16   17 1
    30   17   31 1
    31   18   41 1
    32   19   29 1
    33   20   29 1
    34   21   28 1
    35   22   23 1
    36   22   25 1
    37   23   30 1
    38   24   27 1
    39   24   29 1
    40   25   36 1
    41   26   30 1
    42   26   42 1
    43   27   35 1
    44   28   43 1
    45   30   34 1
    46    1   44 1
    47    2   45 1
    48    3   46 1
    49    4   47 1
    50   11   48 1
    51   11   49 1
    52   12   50 1
    53   12   51 1
    54   13   52 1
    55   13   53 1
    56   14   54 1
    57   14   55 1
    58   15   56 1
    59   16   57 1
    60   17   58 1
    61   18   59 1
    62   19   60 1
    63   19   61 1
    64   19   62 1
    65   20   63 1
    66   20   64 1
    67   20   65 1
    68   21   66 1
    69   21   67 1
    70   22   68 1
    71   22   69 1
    72   23   70 1
    73   23   71 1
    74   24   72 1
    75   24   73 1
    76   25   74 1
    77   25   75 1
    78   26   76 1
    79   26   77 1
    80   27   78 1
    81   28   79 1
    82   29   80 1
    83   30   81 1
    84   32   82 1
    85   32   83 1
    86   33   84 1
    87   33   85 1
    88   34   86 1
    89   35   87 1
    90   36   88 1
    91   40   89 1
    92   41   90 1
    93   42   91 1
    94   43   92 1
@<TRIPOS>MOLECULE
1a2c_ligand_198
   92    94     0     0     0
SMALL
USER_CHARGES

mmff94s_NoEstat = 116.42
@<TRIPOS>ATOM
      1 C1          9.4822   -0.3192    5.2728 C.ar      1 <0>        -0.0708
      2 C2          7.7677    1.3522    5.5947 C.ar      1 <0>        -0.0872
      3 C3         10.4642    0.6621    5.4075 C.ar      1 <0>        -0.2241
      4 C4          8.7497    2.3336    5.7294 C.ar      1 <0>        -0.1600
      5 C5          8.1472    0.0389    5.3682 C.ar      1 <0>        -0.1356
      6 C6         10.0980    1.9886    5.6359 C.ar      1 <0>         0.1290
      7 C7          0.1755   -1.0766    0.1327 C.2       1 <0>         0.6664
      8 C8          2.3785   -0.9757    2.2764 C.2       1 <0>         0.6651
      9 C9          5.2968   -1.9145    3.7000 C.2       1 <0>         0.6454
     10 C10         1.1823    3.8016   -2.8212 C.cat     1 <0>         0.6349
     11 C11         2.4521   -5.3069   -0.2561 C.3       1 <0>        -0.0642
     12 C12         1.2413   -5.9691    0.3982 C.3       1 <0>        -0.0747
     13 C13         1.5734   -2.9393   -0.7647 C.3       1 <0>        -0.0873
     14 C14         1.0938   -4.1277    2.1072 C.3       1 <0>        -0.1371
     15 C15         1.5650   -1.6216    0.0133 C.3       1 <0>         0.0360
     16 C16         2.5597   -3.8106    0.0203 C.3       1 <0>        -0.0720
     17 C17         2.2934   -3.4012    1.4755 C.3       1 <0>         0.1201
     18 C18         1.1411   -5.6363    1.8853 C.3       1 <0>         0.1453
     19 C19         3.8896   -0.8379    6.4377 C.3       1 <0>        -0.0968
     20 C20         2.2599   -2.7349    6.3694 C.3       1 <0>        -0.0986
     21 C21         7.0841   -1.0237    5.2231 C.3       1 <0>        -0.0191
     22 C22        -1.0929    1.4418   -3.1315 C.3       1 <0>        -0.1009
     23 C23        -1.6754    1.2905   -1.7214 C.3       1 <0>        -0.0942
     24 C24         1.9925   -0.8489    4.7298 C.3       1 <0>        -0.0988
     25 C25        -1.0403    2.9094   -3.5504 C.3       1 <0>         0.1966
     26 C26        -2.5783   -1.1036   -2.0263 C.3       1 <0>         0.1128
     27 C27         2.8496   -1.4560    3.6253 C.3       1 <0>         0.0786
     28 C28         6.6400   -1.1984    3.7670 C.3       1 <0>         0.0744
     29 C29         2.4383   -1.2292    6.1562 C.3       1 <0>        -0.0678
     30 C30        -1.7203   -0.1547   -1.1858 C.3       1 <0>         0.1065
     31 N1          2.0322   -1.9586    1.3590 N.am      1 <0>        -0.4315
     32 N2          1.9494    4.5301   -1.9180 N.pl3     1 <0>        -0.8671
     33 N3          1.8029    3.2137   -3.9181 N.pl3     1 <0>        -0.8581
     34 N4         -0.3878   -0.7030   -1.0725 N.am      1 <0>        -0.5687
     35 N5          4.2184   -1.0331    3.6724 N.am      1 <0>        -0.5746
     36 N6         -0.2036    3.6536   -2.6393 N.pl3     1 <0>        -0.7533
     37 O1         -0.3509   -1.0007    1.2367 O.2       1 <0>        -0.5843
     38 O2          2.3230    0.2335    2.0409 O.2       1 <0>        -0.6812
     39 O3          5.2019   -3.1398    3.6875 O.2       1 <0>        -0.5788
     40 O4         11.0563    2.9460    5.7690 O.3       1 <0>        -0.4938
     41 O5          2.2611   -6.1715    2.5852 O.3       1 <0>        -0.6030
     42 O6         -2.5724   -2.4015   -1.4465 O.3       1 <0>        -0.5860
     43 O7          7.6006   -1.9902    3.0832 O.3       1 <0>        -0.6021
     44 H1          9.7772   -1.3498    5.0949 H         1 <0>         0.1412
     45 H2          6.7196    1.6302    5.6694 H         1 <0>         0.1451
     46 H3         11.5127    0.3871    5.3338 H         1 <0>         0.1336
     47 H4          8.4581    3.3652    5.9082 H         1 <0>         0.1567
     48 H5          3.3605   -5.7937    0.1218 H         1 <0>         0.0649
     49 H6          2.4319   -5.4897   -1.3370 H         1 <0>         0.0476
     50 H7          0.3241   -5.6545   -0.1129 H         1 <0>         0.0641
     51 H8          1.3294   -7.0545    0.2691 H         1 <0>         0.0484
     52 H9          0.5754   -3.3919   -0.8000 H         1 <0>         0.0596
     53 H10         1.8977   -2.7914   -1.8003 H         1 <0>         0.0757
     54 H11         1.0807   -3.9085    3.1823 H         1 <0>         0.0782
     55 H12         0.1523   -3.7376    1.7002 H         1 <0>         0.0812
     56 H13         2.2202   -0.8626   -0.4249 H         1 <0>         0.0731
     57 H14         3.5726   -3.4842   -0.2571 H         1 <0>         0.0511
     58 H15         3.1875   -3.5701    2.0864 H         1 <0>         0.0753
     59 H16         0.2435   -6.1003    2.3075 H         1 <0>         0.0427
     60 H17         4.2001   -1.1859    7.4289 H         1 <0>         0.0450
     61 H18         4.0203    0.2482    6.4220 H         1 <0>         0.0406
     62 H19         4.5693   -1.2752    5.6986 H         1 <0>         0.0274
     63 H20         2.8852   -3.3113    5.6789 H         1 <0>         0.0476
     64 H21         2.5335   -3.0185    7.3913 H         1 <0>         0.0170
     65 H22         1.2173   -3.0301    6.2104 H         1 <0>         0.0477
     66 H23         6.2223   -0.7588    5.8502 H         1 <0>         0.0814
     67 H24         7.4760   -1.9624    5.6344 H         1 <0>         0.0685
     68 H25        -0.0806    1.0227   -3.1690 H         1 <0>         0.1016
     69 H26        -1.6964    0.8795   -3.8540 H         1 <0>         0.0660
     70 H27        -2.6943    1.7009   -1.7115 H         1 <0>         0.0512
     71 H28        -1.0951    1.9116   -1.0270 H         1 <0>         0.0454
     72 H29         0.9469   -1.1516    4.5828 H         1 <0>         0.0575
     73 H30         2.0032    0.2464    4.6399 H         1 <0>         0.0743
     74 H31        -2.0466    3.3416   -3.5477 H         1 <0>         0.0662
     75 H32        -0.6379    3.0051   -4.5642 H         1 <0>         0.0622
     76 H33        -2.2157   -1.1795   -3.0567 H         1 <0>         0.0321
     77 H34        -3.6169   -0.7550   -2.0576 H         1 <0>         0.0204
     78 H35         2.8203   -2.5449    3.6159 H         1 <0>         0.0749
     79 H36         6.5594   -0.2342    3.2513 H         1 <0>         0.0719
     80 H37         1.7968   -0.7138    6.8816 H         1 <0>         0.0609
     81 H38        -2.1562   -0.1031   -0.1797 H         1 <0>         0.1063
     82 H39         1.5389    4.9787   -1.1034 H         1 <0>         0.4792
     83 H40         2.9523    4.6368   -2.0513 H         1 <0>         0.4819
     84 H41         1.2721    2.6745   -4.5978 H         1 <0>         0.4802
     85 H42         2.8045    3.3068   -4.0689 H         1 <0>         0.4826
     86 H43         0.1607   -0.8193   -1.9192 H         1 <0>         0.3101
     87 H44         4.4137   -0.0309    3.6864 H         1 <0>         0.3087
     88 H45        -0.6101    4.1082   -1.8127 H         1 <0>         0.4846
     89 H46        11.8264    2.7296    5.2195 H         1 <0>         0.4194
     90 H47         2.7873   -5.4145    2.8873 H         1 <0>         0.4036
     91 H48        -1.7464   -2.8287   -1.7250 H         1 <0>         0.4114
     92 H49         8.4010   -1.9981    3.6331 H         1 <0>         0.3944
@<TRIPOS>BOND
     1    1    3 ar
     2    1    5 ar
     3    2    4 ar
     4    2    5 ar
     5    3    6 ar
     6    4    6 ar
     7    5   21 1
     8    6   40 1
     9    7   15 1
    10    7   34 am
    11    7   37 2
    12    8   27 1
    13    8   31 am
    14    8   38 2
    15    9   28 1
    16    9   35 am
    17    9   39 2
    18   10   32 1
    19   10   33 1
    20   10   36 1
    21   11   12 1
    22   11   16 1
    23   12   18 1
    24   13   15 1
    25   13   16 1
    26   14   17 1
    27   14   18 1
    28   15   31 1
    29   16   17 1
    30   17   31 1
    31   18   41 1
    32   19   29 1
    33   20   29 1
    34   21   28 1
    35   22   23 1
    36   22   25 1
    37   23   30 1
    38   24   27 1
    39   24   29 1
    40   25   36 1
    41   26   30 1
    42   26   42 1
    43   27   35 1
    44   28   43 1
    45   30   34 1
    46    1   44 1
    47    2   45 1
    48    3   46 1
    49    4   47 1
    50   11   48 1
    51   11   49 1
    52   12   50 1
    53   12   51 1
    54   13   52 1
    55   13   53 1
    56   14   54 1
    57   14   55 1
    58   15   56 1
    59   16   57 1
    60   17   58 1
    61   18   59 1
    62   19   60 1
    63   19   61 1
    64   19   62 1
    65   20   63 1
    66   20   64 1
    67   20   65 1
    68   21   66 1
    69   21   67 1
    70   22   68 1
    71   22   69 1
    72   23   70 1
    73   23   71 1
    74   24   72 1
    75   24   73 1
    76   25   74 1
    77   25   75 1
    78   26   76 1
    79   26   77 1
    80   27   78 1
    81   28   79 1
    82   29   80 1
    83   30   81 1
    84   32   82 1
    85   32   83 1
    86   33   84 1
    87   33   85 1
    88   34   86 1
    89   35   87 1
    90   36   88 1
    91   40   89 1
    92   41   90 1
    93   42   91 1
    94   43   92 1
@<TRIPOS>MOLECULE
1a2c_ligand_199
   92    94     0     0     0
SMALL
USER_CHARGES

mmff94s_NoEstat = 116.47
@<TRIPOS>ATOM
      1 C1          9.4822   -0.3192    5.2728 C.ar      1 <0>        -0.0708
      2 C2          7.7677    1.3522    5.5947 C.ar      1 <0>        -0.0872
      3 C3         10.4642    0.6621    5.4075 C.ar      1 <0>        -0.2241
      4 C4          8.7497    2.3336    5.7294 C.ar      1 <0>        -0.1600
      5 C5          8.1472    0.0389    5.3682 C.ar      1 <0>        -0.1356
      6 C6         10.0980    1.9886    5.6359 C.ar      1 <0>         0.1290
      7 C7          0.1755   -1.0766    0.1327 C.2       1 <0>         0.6664
      8 C8          2.3785   -0.9757    2.2764 C.2       1 <0>         0.6651
      9 C9          5.2968   -1.9145    3.7000 C.2       1 <0>         0.6454
     10 C10        -0.3412    3.1368    2.7017 C.cat     1 <0>         0.6349
     11 C11         2.4521   -5.3069   -0.2561 C.3       1 <0>        -0.0642
     12 C12         1.2413   -5.9691    0.3982 C.3       1 <0>        -0.0747
     13 C13         1.5734   -2.9393   -0.7647 C.3       1 <0>        -0.0873
     14 C14         1.0938   -4.1277    2.1072 C.3       1 <0>        -0.1371
     15 C15         1.5650   -1.6216    0.0133 C.3       1 <0>         0.0360
     16 C16         2.5597   -3.8106    0.0203 C.3       1 <0>        -0.0720
     17 C17         2.2934   -3.4012    1.4755 C.3       1 <0>         0.1201
     18 C18         1.1411   -5.6363    1.8853 C.3       1 <0>         0.1453
     19 C19         3.8896   -0.8379    6.4377 C.3       1 <0>        -0.0968
     20 C20         2.2599   -2.7349    6.3694 C.3       1 <0>        -0.0986
     21 C21         7.0841   -1.0237    5.2231 C.3       1 <0>        -0.0191
     22 C22        -0.8392    2.2664   -0.8852 C.3       1 <0>        -0.1009
     23 C23        -1.6754    1.2905   -1.7214 C.3       1 <0>        -0.0942
     24 C24         1.9925   -0.8489    4.7298 C.3       1 <0>        -0.0988
     25 C25        -1.3442    2.3298    0.5545 C.3       1 <0>         0.1966
     26 C26        -2.5783   -1.1036   -2.0263 C.3       1 <0>         0.1128
     27 C27         2.8496   -1.4560    3.6253 C.3       1 <0>         0.0786
     28 C28         6.6400   -1.1984    3.7670 C.3       1 <0>         0.0744
     29 C29         2.4383   -1.2292    6.1562 C.3       1 <0>        -0.0678
     30 C30        -1.7203   -0.1547   -1.1858 C.3       1 <0>         0.1065
     31 N1          2.0322   -1.9586    1.3590 N.am      1 <0>        -0.4315
     32 N2          0.4365    4.0580    3.3957 N.pl3     1 <0>        -0.8671
     33 N3         -0.9201    2.0795    3.3952 N.pl3     1 <0>        -0.8581
     34 N4         -0.3878   -0.7030   -1.0725 N.am      1 <0>        -0.5687
     35 N5          4.2184   -1.0331    3.6724 N.am      1 <0>        -0.5746
     36 N6         -0.5475    3.2615    1.3170 N.pl3     1 <0>        -0.7533
     37 O1         -0.3509   -1.0007    1.2367 O.2       1 <0>        -0.5843
     38 O2          2.3230    0.2335    2.0409 O.2       1 <0>        -0.6812
     39 O3          5.2019   -3.1398    3.6875 O.2       1 <0>        -0.5788
     40 O4         11.0563    2.9460    5.7690 O.3       1 <0>        -0.4938
     41 O5          2.2611   -6.1715    2.5852 O.3       1 <0>        -0.6030
     42 O6         -2.5724   -2.4015   -1.4465 O.3       1 <0>        -0.5860
     43 O7          7.6006   -1.9902    3.0832 O.3       1 <0>        -0.6021
     44 H1          9.7772   -1.3498    5.0949 H         1 <0>         0.1412
     45 H2          6.7196    1.6302    5.6694 H         1 <0>         0.1451
     46 H3         11.5127    0.3871    5.3338 H         1 <0>         0.1336
     47 H4          8.4581    3.3652    5.9082 H         1 <0>         0.1567
     48 H5          3.3605   -5.7937    0.1218 H         1 <0>         0.0649
     49 H6          2.4319   -5.4897   -1.3370 H         1 <0>         0.0476
     50 H7          0.3241   -5.6545   -0.1129 H         1 <0>         0.0641
     51 H8          1.3294   -7.0545    0.2691 H         1 <0>         0.0484
     52 H9          0.5754   -3.3919   -0.8000 H         1 <0>         0.0596
     53 H10         1.8977   -2.7914   -1.8003 H         1 <0>         0.0757
     54 H11         1.0807   -3.9085    3.1823 H         1 <0>         0.0782
     55 H12         0.1523   -3.7376    1.7002 H         1 <0>         0.0812
     56 H13         2.2202   -0.8626   -0.4249 H         1 <0>         0.0731
     57 H14         3.5726   -3.4842   -0.2571 H         1 <0>         0.0511
     58 H15         3.1875   -3.5701    2.0864 H         1 <0>         0.0753
     59 H16         0.2435   -6.1003    2.3075 H         1 <0>         0.0427
     60 H17         4.2001   -1.1859    7.4289 H         1 <0>         0.0450
     61 H18         4.0203    0.2482    6.4220 H         1 <0>         0.0406
     62 H19         4.5693   -1.2752    5.6986 H         1 <0>         0.0274
     63 H20         2.8852   -3.3113    5.6789 H         1 <0>         0.0476
     64 H21         2.5335   -3.0185    7.3913 H         1 <0>         0.0170
     65 H22         1.2173   -3.0301    6.2104 H         1 <0>         0.0477
     66 H23         6.2223   -0.7588    5.8502 H         1 <0>         0.0814
     67 H24         7.4760   -1.9624    5.6344 H         1 <0>         0.0685
     68 H25         0.2122    1.9562   -0.8821 H         1 <0>         0.1016
     69 H26        -0.8730    3.2698   -1.3263 H         1 <0>         0.0660
     70 H27        -1.2820    1.2733   -2.7469 H         1 <0>         0.0512
     71 H28        -2.7004    1.6751   -1.7996 H         1 <0>         0.0454
     72 H29         0.9469   -1.1516    4.5828 H         1 <0>         0.0575
     73 H30         2.0032    0.2464    4.6399 H         1 <0>         0.0743
     74 H31        -1.2851    1.3411    1.0218 H         1 <0>         0.0662
     75 H32        -2.3909    2.6501    0.5805 H         1 <0>         0.0622
     76 H33        -2.2157   -1.1795   -3.0567 H         1 <0>         0.0321
     77 H34        -3.6169   -0.7550   -2.0576 H         1 <0>         0.0204
     78 H35         2.8203   -2.5449    3.6159 H         1 <0>         0.0749
     79 H36         6.5594   -0.2342    3.2513 H         1 <0>         0.0719
     80 H37         1.7968   -0.7138    6.8816 H         1 <0>         0.0609
     81 H38        -2.1562   -0.1031   -0.1797 H         1 <0>         0.1063
     82 H39         0.8806    4.8451    2.9306 H         1 <0>         0.4792
     83 H40         0.5854    3.9661    4.3980 H         1 <0>         0.4819
     84 H41        -1.4944    1.3881    2.9189 H         1 <0>         0.4802
     85 H42        -0.7853    1.9704    4.3975 H         1 <0>         0.4826
     86 H43         0.1607   -0.8193   -1.9192 H         1 <0>         0.3101
     87 H44         4.4137   -0.0309    3.6864 H         1 <0>         0.3087
     88 H45        -0.0970    4.0607    0.8550 H         1 <0>         0.4846
     89 H46        11.8264    2.7296    5.2195 H         1 <0>         0.4194
     90 H47         2.7873   -5.4145    2.8873 H         1 <0>         0.4036
     91 H48        -1.7464   -2.8287   -1.7250 H         1 <0>         0.4114
     92 H49         8.4010   -1.9981    3.6331 H         1 <0>         0.3944
@<TRIPOS>BOND
     1    1    3 ar
     2    1    5 ar
     3    2    4 ar
     4    2    5 ar
     5    3    6 ar
     6    4    6 ar
     7    5   21 1
     8    6   40 1
     9    7   15 1
    10    7   34 am
    11    7   37 2
    12    8   27 1
    13    8   31 am
    14    8   38 2
    15    9   28 1
    16    9   35 am
    17    9   39 2
    18   10   32 1
    19   10   33 1
    20   10   36 1
    21   11   12 1
    22   11   16 1
    23   12   18 1
    24   13   15 1
    25   13   16 1
    26   14   17 1
    27   14   18 1
    28   15   31 1
    29   16   17 1
    30   17   31 1
    31   18   41 1
    32   19   29 1
    33   20   29 1
    34   21   28 1
    35   22   23 1
    36   22   25 1
    37   23   30 1
    38   24   27 1
    39   24   29 1
    40   25   36 1
    41   26   30 1
    42   26   42 1
    43   27   35 1
    44   28   43 1
    45   30   34 1
    46    1   44 1
    47    2   45 1
    48    3   46 1
    49    4   47 1
    50   11   48 1
    51   11   49 1
    52   12   50 1
    53   12   51 1
    54   13   52 1
    55   13   53 1
    56   14   54 1
    57   14   55 1
    58   15   56 1
    59   16   57 1
    60   17   58 1
    61   18   59 1
    62   19   60 1
    63   19   61 1
    64   19   62 1
    65   20   63 1
    66   20   64 1
    67   20   65 1
    68   21   66 1
    69   21   67 1
    70   22   68 1
    71   22   69 1
    72   23   70 1
    73   23   71 1
    74   24   72 1
    75   24   73 1
    76   25   74 1
    77   25   75 1
    78   26   76 1
    79   26   77 1
    80   27   78 1
    81   28   79 1
    82   29   80 1
    83   30   81 1
    84   32   82 1
    85   32   83 1
    86   33   84 1
    87   33   85 1
    88   34   86 1
    89   35   87 1
    90   36   88 1
    91   40   89 1
    92   41   90 1
    93   42   91 1
    94   43   92 1
@<TRIPOS>MOLECULE
1a2c_ligand_200
   92    94     0     0     0
SMALL
USER_CHARGES

mmff94s_NoEstat = 116.61
@<TRIPOS>ATOM
      1 C1         -8.6592   -0.8902   -3.1753 C.ar      1 <0>        -0.0708
      2 C2         -8.7874   -2.2936   -1.2130 C.ar      1 <0>        -0.0872
      3 C3         -9.9266   -1.3218   -3.5668 C.ar      1 <0>        -0.2241
      4 C4        -10.0547   -2.7252   -1.6044 C.ar      1 <0>        -0.1600
      5 C5         -8.1067   -1.3818   -2.0037 C.ar      1 <0>        -0.1356
      6 C6        -10.6243   -2.2394   -2.7813 C.ar      1 <0>         0.1290
      7 C7         -0.1674   -1.0853   -0.0424 C.2       1 <0>         0.6664
      8 C8         -2.5997   -3.1326    0.7250 C.2       1 <0>         0.6651
      9 C9         -4.3299   -1.6044   -1.3634 C.2       1 <0>         0.6454
     10 C10        -1.1728    1.7618   -4.4219 C.cat     1 <0>         0.6349
     11 C11         2.0445   -3.7524    0.2047 C.3       1 <0>        -0.0642
     12 C12         2.1951   -5.1517   -0.3975 C.3       1 <0>        -0.0747
     13 C13         0.7864   -2.3272    1.9103 C.3       1 <0>        -0.0873
     14 C14        -0.3466   -4.9962   -0.4055 C.3       1 <0>        -0.1371
     15 C15        -0.4770   -1.8334    1.2187 C.3       1 <0>         0.0360
     16 C16         1.0305   -3.7327    1.3503 C.3       1 <0>        -0.0720
     17 C17        -0.3661   -4.2312    0.9284 C.3       1 <0>         0.1201
     18 C18         0.8694   -5.9135   -0.5141 C.3       1 <0>         0.1453
     19 C19        -5.9631   -0.4404    1.7581 C.3       1 <0>        -0.0968
     20 C20        -3.8887    0.7550    2.4841 C.3       1 <0>        -0.0986
     21 C21        -6.7349   -0.9140   -1.5796 C.3       1 <0>        -0.0191
     22 C22        -1.2290    2.3228   -0.7494 C.3       1 <0>        -0.1009
     23 C23         0.3037    2.3337   -0.7876 C.3       1 <0>        -0.0942
     24 C24        -3.8619   -1.7555    2.3678 C.3       1 <0>        -0.0988
     25 C25        -1.8057    1.6659   -2.0016 C.3       1 <0>         0.1966
     26 C26         2.4918    0.9866   -0.9811 C.3       1 <0>         0.1128
     27 C27        -3.3800   -1.8574    0.9254 C.3       1 <0>         0.0786
     28 C28        -5.6231   -1.8048   -2.1437 C.3       1 <0>         0.0744
     29 C29        -4.7285   -0.5135    2.6578 C.3       1 <0>        -0.0678
     30 C30         0.9627    0.9465   -0.9241 C.3       1 <0>         0.1065
     31 N1         -1.2224   -3.0398    0.8850 N.am      1 <0>        -0.4315
     32 N2         -0.7613    2.4945   -5.5304 N.pl3     1 <0>        -0.8671
     33 N3         -1.3831    0.3934   -4.5538 N.pl3     1 <0>        -0.8581
     34 N4          0.5562    0.0753    0.1551 N.am      1 <0>        -0.5687
     35 N5         -4.4491   -1.9660   -0.0233 N.am      1 <0>        -0.5746
     36 N6         -1.3772    2.3841   -3.1783 N.pl3     1 <0>        -0.7533
     37 O1         -0.5544   -1.5275   -1.1177 O.2       1 <0>        -0.5843
     38 O2         -3.1933   -4.1752    0.4418 O.2       1 <0>        -0.6812
     39 O3         -3.3092   -1.1565   -1.8810 O.2       1 <0>        -0.5788
     40 O4        -11.8617   -2.6593   -3.1624 O.3       1 <0>        -0.4938
     41 O5          0.7872   -6.8901    0.5248 O.3       1 <0>        -0.6030
     42 O6          3.0045   -0.3315   -1.1244 O.3       1 <0>        -0.5860
     43 O7         -5.3859   -1.4456   -3.4972 O.3       1 <0>        -0.6021
     44 H1         -8.1233   -0.1754   -3.7938 H         1 <0>         0.1412
     45 H2         -8.3515   -2.6774   -0.2942 H         1 <0>         0.1451
     46 H3        -10.3649   -0.9396   -4.4844 H         1 <0>         0.1336
     47 H4        -10.5938   -3.4396   -0.9877 H         1 <0>         0.1567
     48 H5          3.0220   -3.4003    0.5555 H         1 <0>         0.0649
     49 H6          1.7363   -3.0584   -0.5866 H         1 <0>         0.0476
     50 H7          2.6388   -5.0399   -1.3944 H         1 <0>         0.0641
     51 H8          2.9088   -5.7297    0.2024 H         1 <0>         0.0484
     52 H9          1.6439   -1.6583    1.7836 H         1 <0>         0.0596
     53 H10         0.5887   -2.4119    2.9867 H         1 <0>         0.0757
     54 H11        -1.2632   -5.5927   -0.4872 H         1 <0>         0.0782
     55 H12        -0.3526   -4.2949   -1.2498 H         1 <0>         0.0812
     56 H13        -1.0651   -1.1731    1.8629 H         1 <0>         0.0731
     57 H14         1.4245   -4.3763    2.1480 H         1 <0>         0.0511
     58 H15        -0.7725   -4.8823    1.7135 H         1 <0>         0.0753
     59 H16         0.8433   -6.4624   -1.4612 H         1 <0>         0.0427
     60 H17        -6.5181    0.4873    1.9352 H         1 <0>         0.0450
     61 H18        -6.6497   -1.2692    1.9547 H         1 <0>         0.0406
     62 H19        -5.6850   -0.4702    0.6992 H         1 <0>         0.0274
     63 H20        -3.5277    0.8553    1.4548 H         1 <0>         0.0476
     64 H21        -4.4764    1.6472    2.7254 H         1 <0>         0.0170
     65 H22        -3.0188    0.7404    3.1493 H         1 <0>         0.0477
     66 H23        -6.6835   -0.8970   -0.4827 H         1 <0>         0.0814
     67 H24        -6.6110    0.1278   -1.9010 H         1 <0>         0.0685
     68 H25        -1.5809    1.7783    0.1345 H         1 <0>         0.1016
     69 H26        -1.6141    3.3462   -0.6663 H         1 <0>         0.0660
     70 H27         0.6789    2.8127    0.1271 H         1 <0>         0.0512
     71 H28         0.6355    2.9707   -1.6175 H         1 <0>         0.0454
     72 H29        -2.9928   -1.7573    3.0396 H         1 <0>         0.0575
     73 H30        -4.4407   -2.6540    2.6237 H         1 <0>         0.0743
     74 H31        -2.9001    1.6652   -1.9605 H         1 <0>         0.0662
     75 H32        -1.4731    0.6255   -2.0772 H         1 <0>         0.0622
     76 H33         2.9238    1.4335   -0.0796 H         1 <0>         0.0321
     77 H34         2.8279    1.5728   -1.8441 H         1 <0>         0.0204
     78 H35        -2.7366   -1.0282    0.6336 H         1 <0>         0.0749
     79 H36        -5.9009   -2.8650   -2.1131 H         1 <0>         0.0719
     80 H37        -5.0656   -0.5471    3.7011 H         1 <0>         0.0609
     81 H38         0.5984    0.5173   -1.8665 H         1 <0>         0.1063
     82 H39        -0.5973    3.4965   -5.4817 H         1 <0>         0.4792
     83 H40        -0.6144    2.0428   -6.4301 H         1 <0>         0.4819
     84 H41        -1.6842   -0.1723   -3.7639 H         1 <0>         0.4802
     85 H42        -1.2402   -0.0779   -5.4438 H         1 <0>         0.4826
     86 H43         0.8147    0.3282    1.1041 H         1 <0>         0.3101
     87 H44        -5.3471   -2.3283    0.3008 H         1 <0>         0.3087
     88 H45        -1.2073    3.3963   -3.1371 H         1 <0>         0.4846
     89 H46       -11.9255   -2.6826   -4.1305 H         1 <0>         0.4194
     90 H47         1.3049   -6.5470    1.2701 H         1 <0>         0.4036
     91 H48         3.0027   -0.7302   -0.2393 H         1 <0>         0.4114
     92 H49        -6.1488   -0.9186   -3.7860 H         1 <0>         0.3944
@<TRIPOS>BOND
     1    1    3 ar
     2    1    5 ar
     3    2    4 ar
     4    2    5 ar
     5    3    6 ar
     6    4    6 ar
     7    5   21 1
     8    6   40 1
     9    7   15 1
    10    7   34 am
    11    7   37 2
    12    8   27 1
    13    8   31 am
    14    8   38 2
    15    9   28 1
    16    9   35 am
    17    9   39 2
    18   10   32 1
    19   10   33 1
    20   10   36 1
    21   11   12 1
    22   11   16 1
    23   12   18 1
    24   13   15 1
    25   13   16 1
    26   14   17 1
    27   14   18 1
    28   15   31 1
    29   16   17 1
    30   17   31 1
    31   18   41 1
    32   19   29 1
    33   20   29 1
    34   21   28 1
    35   22   23 1
    36   22   25 1
    37   23   30 1
    38   24   27 1
    39   24   29 1
    40   25   36 1
    41   26   30 1
    42   26   42 1
    43   27   35 1
    44   28   43 1
    45   30   34 1
    46    1   44 1
    47    2   45 1
    48    3   46 1
    49    4   47 1
    50   11   48 1
    51   11   49 1
    52   12   50 1
    53   12   51 1
    54   13   52 1
    55   13   53 1
    56   14   54 1
    57   14   55 1
    58   15   56 1
    59   16   57 1
    60   17   58 1
    61   18   59 1
    62   19   60 1
    63   19   61 1
    64   19   62 1
    65   20   63 1
    66   20   64 1
    67   20   65 1
    68   21   66 1
    69   21   67 1
    70   22   68 1
    71   22   69 1
    72   23   70 1
    73   23   71 1
    74   24   72 1
    75   24   73 1
    76   25   74 1
    77   25   75 1
    78   26   76 1
    79   26   77 1
    80   27   78 1
    81   28   79 1
    82   29   80 1
    83   30   81 1
    84   32   82 1
    85   32   83 1
    86   33   84 1
    87   33   85 1
    88   34   86 1
    89   35   87 1
    90   36   88 1
    91   40   89 1
    92   41   90 1
    93   42   91 1
    94   43   92 1
@<TRIPOS>MOLECULE
1a2c_ligand_201
   92    94     0     0     0
SMALL
USER_CHARGES

mmff94s_NoEstat = 116.95
@<TRIPOS>ATOM
      1 C1         -9.0710   -3.1012    0.0189 C.ar      1 <0>        -0.0708
      2 C2         -7.9646   -4.4965    1.6517 C.ar      1 <0>        -0.0872
      3 C3        -10.1182   -4.0195   -0.0562 C.ar      1 <0>        -0.2241
      4 C4         -9.0118   -5.4148    1.5766 C.ar      1 <0>        -0.1600
      5 C5         -8.0083   -3.3520    0.8718 C.ar      1 <0>        -0.1356
      6 C6        -10.0887   -5.1764    0.7226 C.ar      1 <0>         0.1290
      7 C7         -0.0512   -1.0561    0.2993 C.2       1 <0>         0.6664
      8 C8         -1.8469   -3.0457    2.1630 C.2       1 <0>         0.6651
      9 C9         -4.4743   -1.9575    0.3333 C.2       1 <0>         0.6454
     10 C10        -2.7026    4.0282    1.1097 C.cat     1 <0>         0.6349
     11 C11         2.5186   -3.1911    0.6823 C.3       1 <0>        -0.0642
     12 C12         2.4580   -4.6414    0.2376 C.3       1 <0>        -0.0747
     13 C13         1.4874   -1.4827    2.2418 C.3       1 <0>        -0.0873
     14 C14         0.4946   -5.0934    1.7133 C.3       1 <0>        -0.1371
     15 C15         0.0412   -1.4176    1.7503 C.3       1 <0>         0.0360
     16 C16         1.8865   -2.9529    2.0632 C.3       1 <0>        -0.0720
     17 C17         0.5665   -3.7001    2.3454 C.3       1 <0>         0.1201
     18 C18         1.0248   -5.1525    0.2868 C.3       1 <0>         0.1453
     19 C19        -5.3726   -0.5418    3.1302 C.3       1 <0>        -0.0968
     20 C20        -3.4397    1.0389    2.9738 C.3       1 <0>        -0.0986
     21 C21        -6.8749   -2.3574    0.9537 C.3       1 <0>        -0.0191
     22 C22         0.0133    3.1737   -0.5440 C.3       1 <0>        -0.1009
     23 C23        -0.4337    2.0012   -1.4250 C.3       1 <0>        -0.0942
     24 C24        -2.9973   -1.3585    3.5851 C.3       1 <0>        -0.0988
     25 C25        -0.9571    4.3475   -0.6564 C.3       1 <0>         0.1966
     26 C26         1.9058    0.9774   -1.7696 C.3       1 <0>         0.1128
     27 C27        -2.7865   -1.8644    2.1628 C.3       1 <0>         0.0786
     28 C28        -5.7663   -2.6636   -0.0588 C.3       1 <0>         0.0744
     29 C29        -3.9969   -0.1898    3.6979 C.3       1 <0>        -0.0678
     30 C30         0.4555    0.7445   -1.3388 C.3       1 <0>         0.1065
     31 N1         -0.4979   -2.7598    1.9615 N.am      1 <0>        -0.4315
     32 N2         -3.9828    3.6280    1.4784 N.pl3     1 <0>        -0.8671
     33 N3         -1.8392    4.5195    2.0829 N.pl3     1 <0>        -0.8581
     34 N4          0.4455    0.1980   -0.0008 N.am      1 <0>        -0.5687
     35 N5         -3.9799   -2.3853    1.5634 N.am      1 <0>        -0.5746
     36 N6         -2.2743    3.9424   -0.2264 N.pl3     1 <0>        -0.7533
     37 O1         -0.5362   -1.8555   -0.4928 O.2       1 <0>        -0.5843
     38 O2         -2.2998   -4.1783    2.3409 O.2       1 <0>        -0.6812
     39 O3         -3.9527   -1.0962   -0.3713 O.2       1 <0>        -0.5788
     40 O4        -11.1113   -6.0717    0.6505 O.3       1 <0>        -0.4938
     41 O5          0.9879   -6.5072   -0.1510 O.3       1 <0>        -0.6030
     42 O6          1.9423    1.4367   -3.1144 O.3       1 <0>        -0.5860
     43 O7         -6.1634   -2.1870   -1.3365 O.3       1 <0>        -0.6021
     44 H1         -9.1028   -2.2030   -0.5918 H         1 <0>         0.1412
     45 H2         -7.1297   -4.6904    2.3201 H         1 <0>         0.1451
     46 H3        -10.9542   -3.8281   -0.7231 H         1 <0>         0.1336
     47 H4         -8.9835   -6.3139    2.1866 H         1 <0>         0.1567
     48 H5          3.5627   -2.8549    0.7003 H         1 <0>         0.0649
     49 H6          2.0259   -2.5829   -0.0837 H         1 <0>         0.0476
     50 H7          2.8567   -4.7427   -0.7790 H         1 <0>         0.0641
     51 H8          3.1032   -5.2618    0.8729 H         1 <0>         0.0484
     52 H9          2.1569   -0.7868    1.7257 H         1 <0>         0.0596
     53 H10         1.5124   -1.2395    3.3116 H         1 <0>         0.0757
     54 H11         1.0921   -5.7802    2.3299 H         1 <0>         0.0782
     55 H12        -0.5175   -5.5090    1.7393 H         1 <0>         0.0812
     56 H13        -0.5378   -0.6778    2.3126 H         1 <0>         0.0731
     57 H14         2.6304   -3.2407    2.8169 H         1 <0>         0.0511
     58 H15         0.4523   -3.8218    3.4319 H         1 <0>         0.0753
     59 H16         0.3841   -4.5700   -0.3844 H         1 <0>         0.0427
     60 H17        -6.0375    0.3284    3.1563 H         1 <0>         0.0450
     61 H18        -5.8542   -1.3328    3.7128 H         1 <0>         0.0406
     62 H19        -5.2988   -0.8789    2.0908 H         1 <0>         0.0274
     63 H20        -3.3028    0.8425    1.9049 H         1 <0>         0.0476
     64 H21        -4.1178    1.8926    3.0773 H         1 <0>         0.0170
     65 H22        -2.4708    1.3315    3.3922 H         1 <0>         0.0477
     66 H23        -6.4655   -2.3612    1.9727 H         1 <0>         0.0814
     67 H24        -7.2864   -1.3519    0.8004 H         1 <0>         0.0685
     68 H25         0.0724    2.8576    0.5040 H         1 <0>         0.1016
     69 H26         1.0181    3.5045   -0.8331 H         1 <0>         0.0660
     70 H27        -0.4694    2.3356   -2.4708 H         1 <0>         0.0512
     71 H28        -1.4639    1.7294   -1.1616 H         1 <0>         0.0454
     72 H29        -2.0302   -1.0518    4.0061 H         1 <0>         0.0575
     73 H30        -3.3514   -2.1846    4.2177 H         1 <0>         0.0743
     74 H31        -1.0102    4.6987   -1.6923 H         1 <0>         0.0662
     75 H32        -0.6205    5.1846   -0.0362 H         1 <0>         0.0622
     76 H33         2.5067    0.0649   -1.6955 H         1 <0>         0.0321
     77 H34         2.3741    1.7433   -1.1408 H         1 <0>         0.0204
     78 H35        -2.3647   -1.1082    1.5019 H         1 <0>         0.0749
     79 H36        -5.5777   -3.7409   -0.1372 H         1 <0>         0.0719
     80 H37        -4.1195    0.0762    4.7551 H         1 <0>         0.0609
     81 H38         0.0149    0.0012   -2.0158 H         1 <0>         0.1063
     82 H39        -4.6483    3.2647    0.8014 H         1 <0>         0.4792
     83 H40        -4.2916    3.6912    2.4457 H         1 <0>         0.4819
     84 H41        -0.8967    4.8209    1.8480 H         1 <0>         0.4802
     85 H42        -2.1276    4.5892    3.0559 H         1 <0>         0.4826
     86 H43         0.8216    0.7626    0.7549 H         1 <0>         0.3101
     87 H44        -4.4957   -3.1095    2.0656 H         1 <0>         0.3087
     88 H45        -2.9521    3.5724   -0.9038 H         1 <0>         0.4846
     89 H46       -11.4852   -6.0838   -0.2450 H         1 <0>         0.4194
     90 H47         1.8515   -6.8926    0.0654 H         1 <0>         0.4036
     91 H48         1.8522    0.6531   -3.6803 H         1 <0>         0.4114
     92 H49        -7.1203   -2.0275   -1.2920 H         1 <0>         0.3944
@<TRIPOS>BOND
     1    1    3 ar
     2    1    5 ar
     3    2    4 ar
     4    2    5 ar
     5    3    6 ar
     6    4    6 ar
     7    5   21 1
     8    6   40 1
     9    7   15 1
    10    7   34 am
    11    7   37 2
    12    8   27 1
    13    8   31 am
    14    8   38 2
    15    9   28 1
    16    9   35 am
    17    9   39 2
    18   10   32 1
    19   10   33 1
    20   10   36 1
    21   11   12 1
    22   11   16 1
    23   12   18 1
    24   13   15 1
    25   13   16 1
    26   14   17 1
    27   14   18 1
    28   15   31 1
    29   16   17 1
    30   17   31 1
    31   18   41 1
    32   19   29 1
    33   20   29 1
    34   21   28 1
    35   22   23 1
    36   22   25 1
    37   23   30 1
    38   24   27 1
    39   24   29 1
    40   25   36 1
    41   26   30 1
    42   26   42 1
    43   27   35 1
    44   28   43 1
    45   30   34 1
    46    1   44 1
    47    2   45 1
    48    3   46 1
    49    4   47 1
    50   11   48 1
    51   11   49 1
    52   12   50 1
    53   12   51 1
    54   13   52 1
    55   13   53 1
    56   14   54 1
    57   14   55 1
    58   15   56 1
    59   16   57 1
    60   17   58 1
    61   18   59 1
    62   19   60 1
    63   19   61 1
    64   19   62 1
    65   20   63 1
    66   20   64 1
    67   20   65 1
    68   21   66 1
    69   21   67 1
    70   22   68 1
    71   22   69 1
    72   23   70 1
    73   23   71 1
    74   24   72 1
    75   24   73 1
    76   25   74 1
    77   25   75 1
    78   26   76 1
    79   26   77 1
    80   27   78 1
    81   28   79 1
    82   29   80 1
    83   30   81 1
    84   32   82 1
    85   32   83 1
    86   33   84 1
    87   33   85 1
    88   34   86 1
    89   35   87 1
    90   36   88 1
    91   40   89 1
    92   41   90 1
    93   42   91 1
    94   43   92 1
@<TRIPOS>MOLECULE
1a2c_ligand_202
   92    94     0     0     0
SMALL
USER_CHARGES

mmff94s_NoEstat = 117.76
@<TRIPOS>ATOM
      1 C1         -8.7474   -4.8377   -0.2783 C.ar      1 <0>        -0.0708
      2 C2         -7.7847   -5.1607    1.9139 C.ar      1 <0>        -0.0872
      3 C3         -9.7347   -5.7778    0.0167 C.ar      1 <0>        -0.2241
      4 C4         -8.7720   -6.1008    2.2090 C.ar      1 <0>        -0.1600
      5 C5         -7.7856   -4.5418    0.6742 C.ar      1 <0>        -0.1356
      6 C6         -9.7470   -6.4094    1.2604 C.ar      1 <0>         0.1290
      7 C7         -0.0512   -1.0561    0.2993 C.2       1 <0>         0.6664
      8 C8         -1.8469   -3.0457    2.1630 C.2       1 <0>         0.6651
      9 C9         -4.2799   -3.2353   -0.1780 C.2       1 <0>         0.6454
     10 C10         0.3715    6.4363   -0.2829 C.cat     1 <0>         0.6349
     11 C11         2.5186   -3.1911    0.6823 C.3       1 <0>        -0.0642
     12 C12         2.4580   -4.6414    0.2376 C.3       1 <0>        -0.0747
     13 C13         1.4874   -1.4827    2.2418 C.3       1 <0>        -0.0873
     14 C14         0.4946   -5.0934    1.7133 C.3       1 <0>        -0.1371
     15 C15         0.0412   -1.4176    1.7503 C.3       1 <0>         0.0360
     16 C16         1.8865   -2.9529    2.0632 C.3       1 <0>        -0.0720
     17 C17         0.5665   -3.7001    2.3454 C.3       1 <0>         0.1201
     18 C18         1.0248   -5.1525    0.2868 C.3       1 <0>         0.1453
     19 C19        -5.5746   -0.7475    1.4860 C.3       1 <0>        -0.0968
     20 C20        -3.7112    0.7464    0.7408 C.3       1 <0>        -0.0986
     21 C21        -6.7172   -3.5235    0.3550 C.3       1 <0>        -0.0191
     22 C22         0.0133    3.1737   -0.5440 C.3       1 <0>        -0.1009
     23 C23        -0.4337    2.0012   -1.4250 C.3       1 <0>        -0.0942
     24 C24        -3.2372   -1.0062    2.4788 C.3       1 <0>        -0.0988
     25 C25        -0.9571    4.3475   -0.6564 C.3       1 <0>         0.1966
     26 C26         1.9058    0.9774   -1.7696 C.3       1 <0>         0.1128
     27 C27        -2.8325   -2.1090    1.5076 C.3       1 <0>         0.0786
     28 C28        -5.4811   -4.1668   -0.2823 C.3       1 <0>         0.0744
     29 C29        -4.2955   -0.0321    1.9228 C.3       1 <0>        -0.0678
     30 C30         0.4555    0.7445   -1.3388 C.3       1 <0>         0.1065
     31 N1         -0.4979   -2.7598    1.9615 N.am      1 <0>        -0.4315
     32 N2          0.7752    7.4729    0.5523 N.pl3     1 <0>        -0.8671
     33 N3          0.8503    6.3914   -1.5878 N.pl3     1 <0>        -0.8581
     34 N4          0.4455    0.1980   -0.0008 N.am      1 <0>        -0.5687
     35 N5         -3.9193   -2.9688    1.1410 N.am      1 <0>        -0.5746
     36 N6         -0.5089    5.4402    0.1737 N.pl3     1 <0>        -0.7533
     37 O1         -0.5362   -1.8555   -0.4928 O.2       1 <0>        -0.5843
     38 O2         -2.2659   -3.9924    2.8322 O.2       1 <0>        -0.6812
     39 O3         -3.7165   -2.7712   -1.1667 O.2       1 <0>        -0.5788
     40 O4        -10.7114   -7.3255    1.5489 O.3       1 <0>        -0.4938
     41 O5          0.9879   -6.5072   -0.1510 O.3       1 <0>        -0.6030
     42 O6          2.6391   -0.2366   -1.6731 O.3       1 <0>        -0.5860
     43 O7         -5.7416   -4.4039   -1.6583 O.3       1 <0>        -0.6021
     44 H1         -8.7458   -4.3511   -1.2499 H         1 <0>         0.1412
     45 H2         -7.0291   -4.9263    2.6593 H         1 <0>         0.1451
     46 H3        -10.4915   -6.0137   -0.7262 H         1 <0>         0.1336
     47 H4         -8.7768   -6.5888    3.1801 H         1 <0>         0.1567
     48 H5          3.5627   -2.8549    0.7003 H         1 <0>         0.0649
     49 H6          2.0259   -2.5829   -0.0837 H         1 <0>         0.0476
     50 H7          2.8567   -4.7427   -0.7790 H         1 <0>         0.0641
     51 H8          3.1032   -5.2618    0.8729 H         1 <0>         0.0484
     52 H9          2.1569   -0.7868    1.7257 H         1 <0>         0.0596
     53 H10         1.5124   -1.2395    3.3116 H         1 <0>         0.0757
     54 H11         1.0921   -5.7802    2.3299 H         1 <0>         0.0782
     55 H12        -0.5175   -5.5090    1.7393 H         1 <0>         0.0812
     56 H13        -0.5378   -0.6778    2.3126 H         1 <0>         0.0731
     57 H14         2.6304   -3.2407    2.8169 H         1 <0>         0.0511
     58 H15         0.4523   -3.8218    3.4319 H         1 <0>         0.0753
     59 H16         0.3841   -4.5700   -0.3844 H         1 <0>         0.0427
     60 H17        -6.2768   -0.0422    1.0282 H         1 <0>         0.0450
     61 H18        -6.0867   -1.2049    2.3377 H         1 <0>         0.0406
     62 H19        -5.3599   -1.5330    0.7535 H         1 <0>         0.0274
     63 H20        -3.4369    0.0757   -0.0807 H         1 <0>         0.0476
     64 H21        -4.4352    1.4732    0.3573 H         1 <0>         0.0170
     65 H22        -2.8146    1.2981    1.0427 H         1 <0>         0.0477
     66 H23        -6.4347   -2.9971    1.2765 H         1 <0>         0.0814
     67 H24        -7.1526   -2.7613   -0.3034 H         1 <0>         0.0685
     68 H25         0.0724    2.8576    0.5040 H         1 <0>         0.1016
     69 H26         1.0181    3.5045   -0.8331 H         1 <0>         0.0660
     70 H27        -0.4694    2.3356   -2.4708 H         1 <0>         0.0512
     71 H28        -1.4639    1.7294   -1.1616 H         1 <0>         0.0454
     72 H29        -2.3434   -0.4411    2.7760 H         1 <0>         0.0575
     73 H30        -3.6273   -1.4576    3.4018 H         1 <0>         0.0743
     74 H31        -1.9599    4.0433   -0.3383 H         1 <0>         0.0662
     75 H32        -1.0251    4.6914   -1.6936 H         1 <0>         0.0622
     76 H33         2.4001    1.7344   -1.1517 H         1 <0>         0.0321
     77 H34         1.9468    1.3120   -2.8125 H         1 <0>         0.0204
     78 H35        -2.3687   -1.7253    0.5998 H         1 <0>         0.0749
     79 H36        -5.2354   -5.1248    0.1910 H         1 <0>         0.0719
     80 H37        -4.5575    0.6951    2.7011 H         1 <0>         0.0609
     81 H38         0.0149    0.0012   -2.0158 H         1 <0>         0.1063
     82 H39         0.4497    7.5475    1.5123 H         1 <0>         0.4792
     83 H40         1.4120    8.1935    0.2202 H         1 <0>         0.4819
     84 H41         0.5754    5.6478   -2.2249 H         1 <0>         0.4802
     85 H42         1.4891    7.1009   -1.9389 H         1 <0>         0.4826
     86 H43         0.8216    0.7626    0.7549 H         1 <0>         0.3101
     87 H44        -4.4587   -3.4100    1.8874 H         1 <0>         0.3087
     88 H45        -0.8315    5.5218    1.1456 H         1 <0>         0.4846
     89 H46       -10.9730   -7.8029    0.7455 H         1 <0>         0.4194
     90 H47         1.8515   -6.8926    0.0654 H         1 <0>         0.4036
     91 H48         2.8853   -0.3414   -0.7399 H         1 <0>         0.4114
     92 H49        -6.7032   -4.3382   -1.7776 H         1 <0>         0.3944
@<TRIPOS>BOND
     1    1    3 ar
     2    1    5 ar
     3    2    4 ar
     4    2    5 ar
     5    3    6 ar
     6    4    6 ar
     7    5   21 1
     8    6   40 1
     9    7   15 1
    10    7   34 am
    11    7   37 2
    12    8   27 1
    13    8   31 am
    14    8   38 2
    15    9   28 1
    16    9   35 am
    17    9   39 2
    18   10   32 1
    19   10   33 1
    20   10   36 1
    21   11   12 1
    22   11   16 1
    23   12   18 1
    24   13   15 1
    25   13   16 1
    26   14   17 1
    27   14   18 1
    28   15   31 1
    29   16   17 1
    30   17   31 1
    31   18   41 1
    32   19   29 1
    33   20   29 1
    34   21   28 1
    35   22   23 1
    36   22   25 1
    37   23   30 1
    38   24   27 1
    39   24   29 1
    40   25   36 1
    41   26   30 1
    42   26   42 1
    43   27   35 1
    44   28   43 1
    45   30   34 1
    46    1   44 1
    47    2   45 1
    48    3   46 1
    49    4   47 1
    50   11   48 1
    51   11   49 1
    52   12   50 1
    53   12   51 1
    54   13   52 1
    55   13   53 1
    56   14   54 1
    57   14   55 1
    58   15   56 1
    59   16   57 1
    60   17   58 1
    61   18   59 1
    62   19   60 1
    63   19   61 1
    64   19   62 1
    65   20   63 1
    66   20   64 1
    67   20   65 1
    68   21   66 1
    69   21   67 1
    70   22   68 1
    71   22   69 1
    72   23   70 1
    73   23   71 1
    74   24   72 1
    75   24   73 1
    76   25   74 1
    77   25   75 1
    78   26   76 1
    79   26   77 1
    80   27   78 1
    81   28   79 1
    82   29   80 1
    83   30   81 1
    84   32   82 1
    85   32   83 1
    86   33   84 1
    87   33   85 1
    88   34   86 1
    89   35   87 1
    90   36   88 1
    91   40   89 1
    92   41   90 1
    93   42   91 1
    94   43   92 1
@<TRIPOS>MOLECULE
1a2c_ligand_203
   92    94     0     0     0
SMALL
USER_CHARGES

mmff94s_NoEstat = 118.39
@<TRIPOS>ATOM
      1 C1         -7.0660   -4.9282   -2.9366 C.ar      1 <0>        -0.0708
      2 C2         -6.6866   -5.8628   -0.7412 C.ar      1 <0>        -0.0872
      3 C3         -7.8027   -6.0586   -3.2904 C.ar      1 <0>        -0.2241
      4 C4         -7.4233   -6.9931   -1.0950 C.ar      1 <0>        -0.1600
      5 C5         -6.5178   -4.8455   -1.6667 C.ar      1 <0>        -0.1356
      6 C6         -7.9813   -7.0911   -2.3696 C.ar      1 <0>         0.1290
      7 C7         -0.0512   -1.0561    0.2993 C.2       1 <0>         0.6664
      8 C8         -1.8469   -3.0457    2.1630 C.2       1 <0>         0.6651
      9 C9         -3.4040   -2.7670   -0.8258 C.2       1 <0>         0.6454
     10 C10        -4.0116    5.1557   -0.3824 C.cat     1 <0>         0.6349
     11 C11         2.5186   -3.1911    0.6823 C.3       1 <0>        -0.0642
     12 C12         2.4580   -4.6414    0.2376 C.3       1 <0>        -0.0747
     13 C13         1.4874   -1.4827    2.2418 C.3       1 <0>        -0.0873
     14 C14         0.4946   -5.0934    1.7133 C.3       1 <0>        -0.1371
     15 C15         0.0412   -1.4176    1.7503 C.3       1 <0>         0.0360
     16 C16         1.8865   -2.9529    2.0632 C.3       1 <0>        -0.0720
     17 C17         0.5665   -3.7001    2.3454 C.3       1 <0>         0.1201
     18 C18         1.0248   -5.1525    0.2868 C.3       1 <0>         0.1453
     19 C19        -5.7275   -1.2982    0.9287 C.3       1 <0>        -0.0968
     20 C20        -4.2097    0.6462    1.3473 C.3       1 <0>        -0.0986
     21 C21        -5.7209   -3.6214   -1.2834 C.3       1 <0>        -0.0191
     22 C22        -1.2019    2.6554   -0.7648 C.3       1 <0>        -0.1009
     23 C23        -0.8794    1.4488   -1.6540 C.3       1 <0>        -0.0942
     24 C24        -3.7699   -1.5150    2.5525 C.3       1 <0>        -0.0988
     25 C25        -2.5638    3.2498   -1.1169 C.3       1 <0>         0.1966
     26 C26         1.6856    1.6412   -1.5001 C.3       1 <0>         0.1128
     27 C27        -2.8325   -2.1090    1.5076 C.3       1 <0>         0.0786
     28 C28        -4.2317   -3.7794   -1.6077 C.3       1 <0>         0.0744
     29 C29        -4.8597   -0.5919    1.9712 C.3       1 <0>        -0.0678
     30 C30         0.4555    0.7445   -1.3388 C.3       1 <0>         0.1065
     31 N1         -0.4979   -2.7598    1.9615 N.am      1 <0>        -0.4315
     32 N2         -4.2357    6.2444    0.4539 N.pl3     1 <0>        -0.8671
     33 N3         -4.9668    4.8273   -1.3383 N.pl3     1 <0>        -0.8581
     34 N4          0.4455    0.1980   -0.0008 N.am      1 <0>        -0.5687
     35 N5         -3.5026   -2.9419    0.5527 N.am      1 <0>        -0.5746
     36 N6         -2.8388    4.3887   -0.2734 N.pl3     1 <0>        -0.7533
     37 O1         -0.5362   -1.8555   -0.4928 O.2       1 <0>        -0.5843
     38 O2         -2.2659   -3.9924    2.8322 O.2       1 <0>        -0.6812
     39 O3         -2.7407   -1.8909   -1.3761 O.2       1 <0>        -0.5788
     40 O4         -8.7016   -8.1934   -2.7144 O.3       1 <0>        -0.4938
     41 O5          0.9879   -6.5072   -0.1510 O.3       1 <0>        -0.6030
     42 O6          1.7603    2.1231   -2.8354 O.3       1 <0>        -0.5860
     43 O7         -4.0332   -3.5405   -2.9937 O.3       1 <0>        -0.6021
     44 H1         -6.9320   -4.1292   -3.6606 H         1 <0>         0.1412
     45 H2         -6.2556   -5.7950    0.2544 H         1 <0>         0.1451
     46 H3         -8.2349   -6.1289   -4.2847 H         1 <0>         0.1336
     47 H4         -7.5597   -7.7939   -0.3729 H         1 <0>         0.1567
     48 H5          3.5627   -2.8549    0.7003 H         1 <0>         0.0649
     49 H6          2.0259   -2.5829   -0.0837 H         1 <0>         0.0476
     50 H7          2.8567   -4.7427   -0.7790 H         1 <0>         0.0641
     51 H8          3.1032   -5.2618    0.8729 H         1 <0>         0.0484
     52 H9          2.1569   -0.7868    1.7257 H         1 <0>         0.0596
     53 H10         1.5124   -1.2395    3.3116 H         1 <0>         0.0757
     54 H11         1.0921   -5.7802    2.3299 H         1 <0>         0.0782
     55 H12        -0.5175   -5.5090    1.7393 H         1 <0>         0.0812
     56 H13        -0.5378   -0.6778    2.3126 H         1 <0>         0.0731
     57 H14         2.6304   -3.2407    2.8169 H         1 <0>         0.0511
     58 H15         0.4523   -3.8218    3.4319 H         1 <0>         0.0753
     59 H16         0.3841   -4.5700   -0.3844 H         1 <0>         0.0427
     60 H17        -6.4424   -0.5993    0.4810 H         1 <0>         0.0450
     61 H18        -6.3080   -2.1101    1.3767 H         1 <0>         0.0406
     62 H19        -5.1167   -1.7184    0.1225 H         1 <0>         0.0274
     63 H20        -3.5507    0.3732    0.5159 H         1 <0>         0.0476
     64 H21        -4.9709    1.3343    0.9644 H         1 <0>         0.0170
     65 H22        -3.6139    1.1889    2.0888 H         1 <0>         0.0477
     66 H23        -5.8540   -3.4265   -0.2108 H         1 <0>         0.0814
     67 H24        -6.1504   -2.7541   -1.8005 H         1 <0>         0.0685
     68 H25        -1.2036    2.3575    0.2901 H         1 <0>         0.1016
     69 H26        -0.4298    3.4262   -0.8760 H         1 <0>         0.0660
     70 H27        -0.8663    1.7736   -2.7033 H         1 <0>         0.0512
     71 H28        -1.6959    0.7195   -1.5759 H         1 <0>         0.0454
     72 H29        -3.1790   -0.9587    3.2928 H         1 <0>         0.0575
     73 H30        -4.2588   -2.3274    3.1083 H         1 <0>         0.0743
     74 H31        -3.3520    2.5022   -0.9783 H         1 <0>         0.0662
     75 H32        -2.5848    3.5678   -2.1644 H         1 <0>         0.0622
     76 H33         2.6140    1.1086   -1.2684 H         1 <0>         0.0321
     77 H34         1.6176    2.5087   -0.8338 H         1 <0>         0.0204
     78 H35        -2.2612   -1.3523    0.9714 H         1 <0>         0.0749
     79 H36        -3.8738   -4.7901   -1.3784 H         1 <0>         0.0719
     80 H37        -5.5109   -0.2494    2.7849 H         1 <0>         0.0609
     81 H38         0.5463   -0.0881   -2.0483 H         1 <0>         0.1063
     82 H39        -3.5669    6.5202    1.1680 H         1 <0>         0.4792
     83 H40        -5.0854    6.7983    0.3742 H         1 <0>         0.4819
     84 H41        -4.8350    4.0377   -1.9658 H         1 <0>         0.4802
     85 H42        -5.8222    5.3690   -1.4357 H         1 <0>         0.4826
     86 H43         0.8216    0.7626    0.7549 H         1 <0>         0.3101
     87 H44        -4.0841   -3.7053    0.9020 H         1 <0>         0.3087
     88 H45        -2.1673    4.6753    0.4493 H         1 <0>         0.4846
     89 H46        -8.5946   -8.3827   -3.6602 H         1 <0>         0.4194
     90 H47         1.8515   -6.8926    0.0654 H         1 <0>         0.4036
     91 H48         2.1522    1.4122   -3.3679 H         1 <0>         0.4114
     92 H49        -4.9061   -3.5934   -3.4159 H         1 <0>         0.3944
@<TRIPOS>BOND
     1    1    3 ar
     2    1    5 ar
     3    2    4 ar
     4    2    5 ar
     5    3    6 ar
     6    4    6 ar
     7    5   21 1
     8    6   40 1
     9    7   15 1
    10    7   34 am
    11    7   37 2
    12    8   27 1
    13    8   31 am
    14    8   38 2
    15    9   28 1
    16    9   35 am
    17    9   39 2
    18   10   32 1
    19   10   33 1
    20   10   36 1
    21   11   12 1
    22   11   16 1
    23   12   18 1
    24   13   15 1
    25   13   16 1
    26   14   17 1
    27   14   18 1
    28   15   31 1
    29   16   17 1
    30   17   31 1
    31   18   41 1
    32   19   29 1
    33   20   29 1
    34   21   28 1
    35   22   23 1
    36   22   25 1
    37   23   30 1
    38   24   27 1
    39   24   29 1
    40   25   36 1
    41   26   30 1
    42   26   42 1
    43   27   35 1
    44   28   43 1
    45   30   34 1
    46    1   44 1
    47    2   45 1
    48    3   46 1
    49    4   47 1
    50   11   48 1
    51   11   49 1
    52   12   50 1
    53   12   51 1
    54   13   52 1
    55   13   53 1
    56   14   54 1
    57   14   55 1
    58   15   56 1
    59   16   57 1
    60   17   58 1
    61   18   59 1
    62   19   60 1
    63   19   61 1
    64   19   62 1
    65   20   63 1
    66   20   64 1
    67   20   65 1
    68   21   66 1
    69   21   67 1
    70   22   68 1
    71   22   69 1
    72   23   70 1
    73   23   71 1
    74   24   72 1
    75   24   73 1
    76   25   74 1
    77   25   75 1
    78   26   76 1
    79   26   77 1
    80   27   78 1
    81   28   79 1
    82   29   80 1
    83   30   81 1
    84   32   82 1
    85   32   83 1
    86   33   84 1
    87   33   85 1
    88   34   86 1
    89   35   87 1
    90   36   88 1
    91   40   89 1
    92   41   90 1
    93   42   91 1
    94   43   92 1
@<TRIPOS>MOLECULE
1a2c_ligand_204
   92    94     0     0     0
SMALL
USER_CHARGES

mmff94s_NoEstat = 118.56
@<TRIPOS>ATOM
      1 C1         -6.7567   -4.6738   -3.5933 C.ar      1 <0>        -0.0708
      2 C2         -7.3456   -4.9208   -1.2633 C.ar      1 <0>        -0.0872
      3 C3         -7.6642   -5.6785   -3.9292 C.ar      1 <0>        -0.2241
      4 C4         -8.2530   -5.9255   -1.5991 C.ar      1 <0>        -0.1600
      5 C5         -6.6096   -4.3084   -2.2649 C.ar      1 <0>        -0.1356
      6 C6         -8.4124   -6.3044   -2.9320 C.ar      1 <0>         0.1290
      7 C7         -0.0512   -1.0561    0.2993 C.2       1 <0>         0.6664
      8 C8         -1.8469   -3.0457    2.1630 C.2       1 <0>         0.6651
      9 C9         -3.4040   -2.7670   -0.8258 C.2       1 <0>         0.6454
     10 C10        -4.7698    2.2135   -3.1337 C.cat     1 <0>         0.6349
     11 C11         2.5186   -3.1911    0.6823 C.3       1 <0>        -0.0642
     12 C12         2.4580   -4.6414    0.2376 C.3       1 <0>        -0.0747
     13 C13         1.4874   -1.4827    2.2418 C.3       1 <0>        -0.0873
     14 C14         0.4946   -5.0934    1.7133 C.3       1 <0>        -0.1371
     15 C15         0.0412   -1.4176    1.7503 C.3       1 <0>         0.0360
     16 C16         1.8865   -2.9529    2.0632 C.3       1 <0>        -0.0720
     17 C17         0.5665   -3.7001    2.3454 C.3       1 <0>         0.1201
     18 C18         1.0248   -5.1525    0.2868 C.3       1 <0>         0.1453
     19 C19        -5.7275   -1.2982    0.9287 C.3       1 <0>        -0.0968
     20 C20        -4.2097    0.6462    1.3473 C.3       1 <0>        -0.0986
     21 C21        -5.6277   -3.2203   -1.9015 C.3       1 <0>        -0.0191
     22 C22        -0.9951    2.0137   -3.0747 C.3       1 <0>        -0.1009
     23 C23        -0.8794    1.4488   -1.6540 C.3       1 <0>        -0.0942
     24 C24        -3.7699   -1.5150    2.5525 C.3       1 <0>        -0.0988
     25 C25        -2.3255    2.7368   -3.2725 C.3       1 <0>         0.1966
     26 C26         1.6856    1.6412   -1.5001 C.3       1 <0>         0.1128
     27 C27        -2.8325   -2.1090    1.5076 C.3       1 <0>         0.0786
     28 C28        -4.2317   -3.7794   -1.6077 C.3       1 <0>         0.0744
     29 C29        -4.8597   -0.5919    1.9712 C.3       1 <0>        -0.0678
     30 C30         0.4555    0.7445   -1.3388 C.3       1 <0>         0.1065
     31 N1         -0.4979   -2.7598    1.9615 N.am      1 <0>        -0.4315
     32 N2         -5.7943    1.2997   -2.9095 N.pl3     1 <0>        -0.8671
     33 N3         -5.0918    3.5293   -3.4484 N.pl3     1 <0>        -0.8581
     34 N4          0.4455    0.1980   -0.0008 N.am      1 <0>        -0.5687
     35 N5         -3.5026   -2.9419    0.5527 N.am      1 <0>        -0.5746
     36 N6         -3.4217    1.8252   -3.0463 N.pl3     1 <0>        -0.7533
     37 O1         -0.5362   -1.8555   -0.4928 O.2       1 <0>        -0.5843
     38 O2         -2.2659   -3.9924    2.8322 O.2       1 <0>        -0.6812
     39 O3         -2.7407   -1.8909   -1.3761 O.2       1 <0>        -0.5788
     40 O4         -9.2991   -7.2836   -3.2599 O.3       1 <0>        -0.4938
     41 O5          0.9879   -6.5072   -0.1510 O.3       1 <0>        -0.6030
     42 O6          1.5971    2.7470   -0.6113 O.3       1 <0>        -0.5860
     43 O7         -3.5703   -4.0395   -2.8375 O.3       1 <0>        -0.6021
     44 H1         -6.1783   -4.1922   -4.3770 H         1 <0>         0.1412
     45 H2         -7.2282   -4.6319   -0.2220 H         1 <0>         0.1451
     46 H3         -7.7839   -5.9690   -4.9692 H         1 <0>         0.1336
     47 H4         -8.8337   -6.4088   -0.8178 H         1 <0>         0.1567
     48 H5          3.5627   -2.8549    0.7003 H         1 <0>         0.0649
     49 H6          2.0259   -2.5829   -0.0837 H         1 <0>         0.0476
     50 H7          2.8567   -4.7427   -0.7790 H         1 <0>         0.0641
     51 H8          3.1032   -5.2618    0.8729 H         1 <0>         0.0484
     52 H9          2.1569   -0.7868    1.7257 H         1 <0>         0.0596
     53 H10         1.5124   -1.2395    3.3116 H         1 <0>         0.0757
     54 H11         1.0921   -5.7802    2.3299 H         1 <0>         0.0782
     55 H12        -0.5175   -5.5090    1.7393 H         1 <0>         0.0812
     56 H13        -0.5378   -0.6778    2.3126 H         1 <0>         0.0731
     57 H14         2.6304   -3.2407    2.8169 H         1 <0>         0.0511
     58 H15         0.4523   -3.8218    3.4319 H         1 <0>         0.0753
     59 H16         0.3841   -4.5700   -0.3844 H         1 <0>         0.0427
     60 H17        -6.4424   -0.5993    0.4810 H         1 <0>         0.0450
     61 H18        -6.3080   -2.1101    1.3767 H         1 <0>         0.0406
     62 H19        -5.1167   -1.7184    0.1225 H         1 <0>         0.0274
     63 H20        -3.5507    0.3732    0.5159 H         1 <0>         0.0476
     64 H21        -4.9709    1.3343    0.9644 H         1 <0>         0.0170
     65 H22        -3.6139    1.1889    2.0888 H         1 <0>         0.0477
     66 H23        -6.0051   -2.6719   -1.0280 H         1 <0>         0.0814
     67 H24        -5.5997   -2.4925   -2.7222 H         1 <0>         0.0685
     68 H25        -0.1747    2.7139   -3.2707 H         1 <0>         0.1016
     69 H26        -0.9072    1.2071   -3.8124 H         1 <0>         0.0660
     70 H27        -1.7000    0.7382   -1.4859 H         1 <0>         0.0512
     71 H28        -1.0340    2.2618   -0.9330 H         1 <0>         0.0454
     72 H29        -3.1790   -0.9587    3.2928 H         1 <0>         0.0575
     73 H30        -4.2588   -2.3274    3.1083 H         1 <0>         0.0743
     74 H31        -2.3940    3.1346   -4.2905 H         1 <0>         0.0662
     75 H32        -2.4118    3.5787   -2.5778 H         1 <0>         0.0622
     76 H33         1.7842    2.0214   -2.5223 H         1 <0>         0.0321
     77 H34         2.5988    1.0866   -1.2555 H         1 <0>         0.0204
     78 H35        -2.2612   -1.3523    0.9714 H         1 <0>         0.0749
     79 H36        -4.2834   -4.7163   -1.0404 H         1 <0>         0.0719
     80 H37        -5.5109   -0.2494    2.7849 H         1 <0>         0.0609
     81 H38         0.5463   -0.0881   -2.0483 H         1 <0>         0.1063
     82 H39        -5.6066    0.3277   -2.6788 H         1 <0>         0.4792
     83 H40        -6.7696    1.5821   -2.9737 H         1 <0>         0.4819
     84 H41        -4.3678    4.2231   -3.6185 H         1 <0>         0.4802
     85 H42        -6.0604    3.8326   -3.5158 H         1 <0>         0.4826
     86 H43         0.8216    0.7626    0.7549 H         1 <0>         0.3101
     87 H44        -4.0841   -3.7053    0.9020 H         1 <0>         0.3087
     88 H45        -3.2407    0.8418   -2.8107 H         1 <0>         0.4846
     89 H46        -8.9810   -7.7812   -4.0301 H         1 <0>         0.4194
     90 H47         1.8515   -6.8926    0.0654 H         1 <0>         0.4036
     91 H48         1.0115    3.3975   -1.0313 H         1 <0>         0.4114
     92 H49        -4.2525   -4.0407   -3.5287 H         1 <0>         0.3944
@<TRIPOS>BOND
     1    1    3 ar
     2    1    5 ar
     3    2    4 ar
     4    2    5 ar
     5    3    6 ar
     6    4    6 ar
     7    5   21 1
     8    6   40 1
     9    7   15 1
    10    7   34 am
    11    7   37 2
    12    8   27 1
    13    8   31 am
    14    8   38 2
    15    9   28 1
    16    9   35 am
    17    9   39 2
    18   10   32 1
    19   10   33 1
    20   10   36 1
    21   11   12 1
    22   11   16 1
    23   12   18 1
    24   13   15 1
    25   13   16 1
    26   14   17 1
    27   14   18 1
    28   15   31 1
    29   16   17 1
    30   17   31 1
    31   18   41 1
    32   19   29 1
    33   20   29 1
    34   21   28 1
    35   22   23 1
    36   22   25 1
    37   23   30 1
    38   24   27 1
    39   24   29 1
    40   25   36 1
    41   26   30 1
    42   26   42 1
    43   27   35 1
    44   28   43 1
    45   30   34 1
    46    1   44 1
    47    2   45 1
    48    3   46 1
    49    4   47 1
    50   11   48 1
    51   11   49 1
    52   12   50 1
    53   12   51 1
    54   13   52 1
    55   13   53 1
    56   14   54 1
    57   14   55 1
    58   15   56 1
    59   16   57 1
    60   17   58 1
    61   18   59 1
    62   19   60 1
    63   19   61 1
    64   19   62 1
    65   20   63 1
    66   20   64 1
    67   20   65 1
    68   21   66 1
    69   21   67 1
    70   22   68 1
    71   22   69 1
    72   23   70 1
    73   23   71 1
    74   24   72 1
    75   24   73 1
    76   25   74 1
    77   25   75 1
    78   26   76 1
    79   26   77 1
    80   27   78 1
    81   28   79 1
    82   29   80 1
    83   30   81 1
    84   32   82 1
    85   32   83 1
    86   33   84 1
    87   33   85 1
    88   34   86 1
    89   35   87 1
    90   36   88 1
    91   40   89 1
    92   41   90 1
    93   42   91 1
    94   43   92 1
@<TRIPOS>MOLECULE
1a2c_ligand_205
   92    94     0     0     0
SMALL
USER_CHARGES

mmff94s_NoEstat = 118.61
@<TRIPOS>ATOM
      1 C1         -7.0660   -4.9282   -2.9366 C.ar      1 <0>        -0.0708
      2 C2         -6.6866   -5.8628   -0.7412 C.ar      1 <0>        -0.0872
      3 C3         -7.8027   -6.0586   -3.2904 C.ar      1 <0>        -0.2241
      4 C4         -7.4233   -6.9931   -1.0950 C.ar      1 <0>        -0.1600
      5 C5         -6.5178   -4.8455   -1.6667 C.ar      1 <0>        -0.1356
      6 C6         -7.9813   -7.0911   -2.3696 C.ar      1 <0>         0.1290
      7 C7         -0.0512   -1.0561    0.2993 C.2       1 <0>         0.6664
      8 C8         -1.8469   -3.0457    2.1630 C.2       1 <0>         0.6651
      9 C9         -3.4040   -2.7670   -0.8258 C.2       1 <0>         0.6454
     10 C10        -3.3294    2.0808   -3.5565 C.cat     1 <0>         0.6349
     11 C11         2.5186   -3.1911    0.6823 C.3       1 <0>        -0.0642
     12 C12         2.4580   -4.6414    0.2376 C.3       1 <0>        -0.0747
     13 C13         1.4874   -1.4827    2.2418 C.3       1 <0>        -0.0873
     14 C14         0.4946   -5.0934    1.7133 C.3       1 <0>        -0.1371
     15 C15         0.0412   -1.4176    1.7503 C.3       1 <0>         0.0360
     16 C16         1.8865   -2.9529    2.0632 C.3       1 <0>        -0.0720
     17 C17         0.5665   -3.7001    2.3454 C.3       1 <0>         0.1201
     18 C18         1.0248   -5.1525    0.2868 C.3       1 <0>         0.1453
     19 C19        -5.7275   -1.2982    0.9287 C.3       1 <0>        -0.0968
     20 C20        -4.2097    0.6462    1.3473 C.3       1 <0>        -0.0986
     21 C21        -5.7209   -3.6214   -1.2834 C.3       1 <0>        -0.0191
     22 C22        -1.0374    2.7415   -0.6235 C.3       1 <0>        -0.1009
     23 C23         0.2513    2.2726   -1.3090 C.3       1 <0>        -0.0942
     24 C24        -3.7699   -1.5150    2.5525 C.3       1 <0>        -0.0988
     25 C25        -2.2684    2.1304   -1.2894 C.3       1 <0>         0.1966
     26 C26         1.7383    0.3016   -2.0469 C.3       1 <0>         0.1128
     27 C27        -2.8325   -2.1090    1.5076 C.3       1 <0>         0.0786
     28 C28        -4.2317   -3.7794   -1.6077 C.3       1 <0>         0.0744
     29 C29        -4.8597   -0.5919    1.9712 C.3       1 <0>        -0.0678
     30 C30         0.4555    0.7445   -1.3388 C.3       1 <0>         0.1065
     31 N1         -0.4979   -2.7598    1.9615 N.am      1 <0>        -0.4315
     32 N2         -3.3390    2.4766   -4.8899 N.pl3     1 <0>        -0.8671
     33 N3         -4.3382    1.2447   -3.0902 N.pl3     1 <0>        -0.8581
     34 N4          0.4455    0.1980   -0.0008 N.am      1 <0>        -0.5687
     35 N5         -3.5026   -2.9419    0.5527 N.am      1 <0>        -0.5746
     36 N6         -2.3186    2.5130   -2.6805 N.pl3     1 <0>        -0.7533
     37 O1         -0.5362   -1.8555   -0.4928 O.2       1 <0>        -0.5843
     38 O2         -2.2659   -3.9924    2.8322 O.2       1 <0>        -0.6812
     39 O3         -2.7407   -1.8909   -1.3761 O.2       1 <0>        -0.5788
     40 O4         -8.7016   -8.1934   -2.7144 O.3       1 <0>        -0.4938
     41 O5          0.9879   -6.5072   -0.1510 O.3       1 <0>        -0.6030
     42 O6          2.8703    0.8436   -1.3793 O.3       1 <0>        -0.5860
     43 O7         -4.0332   -3.5405   -2.9937 O.3       1 <0>        -0.6021
     44 H1         -6.9320   -4.1292   -3.6606 H         1 <0>         0.1412
     45 H2         -6.2556   -5.7950    0.2544 H         1 <0>         0.1451
     46 H3         -8.2349   -6.1289   -4.2847 H         1 <0>         0.1336
     47 H4         -7.5597   -7.7939   -0.3729 H         1 <0>         0.1567
     48 H5          3.5627   -2.8549    0.7003 H         1 <0>         0.0649
     49 H6          2.0259   -2.5829   -0.0837 H         1 <0>         0.0476
     50 H7          2.8567   -4.7427   -0.7790 H         1 <0>         0.0641
     51 H8          3.1032   -5.2618    0.8729 H         1 <0>         0.0484
     52 H9          2.1569   -0.7868    1.7257 H         1 <0>         0.0596
     53 H10         1.5124   -1.2395    3.3116 H         1 <0>         0.0757
     54 H11         1.0921   -5.7802    2.3299 H         1 <0>         0.0782
     55 H12        -0.5175   -5.5090    1.7393 H         1 <0>         0.0812
     56 H13        -0.5378   -0.6778    2.3126 H         1 <0>         0.0731
     57 H14         2.6304   -3.2407    2.8169 H         1 <0>         0.0511
     58 H15         0.4523   -3.8218    3.4319 H         1 <0>         0.0753
     59 H16         0.3841   -4.5700   -0.3844 H         1 <0>         0.0427
     60 H17        -6.4424   -0.5993    0.4810 H         1 <0>         0.0450
     61 H18        -6.3080   -2.1101    1.3767 H         1 <0>         0.0406
     62 H19        -5.1167   -1.7184    0.1225 H         1 <0>         0.0274
     63 H20        -3.5507    0.3732    0.5159 H         1 <0>         0.0476
     64 H21        -4.9709    1.3343    0.9644 H         1 <0>         0.0170
     65 H22        -3.6139    1.1889    2.0888 H         1 <0>         0.0477
     66 H23        -5.8540   -3.4265   -0.2108 H         1 <0>         0.0814
     67 H24        -6.1504   -2.7541   -1.8005 H         1 <0>         0.0685
     68 H25        -1.0263    2.4588    0.4356 H         1 <0>         0.1016
     69 H26        -1.1105    3.8350   -0.6596 H         1 <0>         0.0660
     70 H27         1.1110    2.7323   -0.8028 H         1 <0>         0.0512
     71 H28         0.2685    2.6560   -2.3373 H         1 <0>         0.0454
     72 H29        -3.1790   -0.9587    3.2928 H         1 <0>         0.0575
     73 H30        -4.2588   -2.3274    3.1083 H         1 <0>         0.0743
     74 H31        -3.1804    2.4738   -0.7898 H         1 <0>         0.0662
     75 H32        -2.2399    1.0381   -1.2201 H         1 <0>         0.0622
     76 H33         1.7614    0.6251   -3.0928 H         1 <0>         0.0321
     77 H34         1.8289   -0.7905   -2.0281 H         1 <0>         0.0204
     78 H35        -2.2612   -1.3523    0.9714 H         1 <0>         0.0749
     79 H36        -3.8738   -4.7901   -1.3784 H         1 <0>         0.0719
     80 H37        -5.5109   -0.2494    2.7849 H         1 <0>         0.0609
     81 H38        -0.3978    0.3245   -1.8868 H         1 <0>         0.1063
     82 H39        -2.6237    3.0881   -5.2742 H         1 <0>         0.4792
     83 H40        -4.0716    2.1635   -5.5226 H         1 <0>         0.4819
     84 H41        -4.3615    0.9362   -2.1213 H         1 <0>         0.4802
     85 H42        -5.0788    0.9188   -3.7066 H         1 <0>         0.4826
     86 H43         0.8216    0.7626    0.7549 H         1 <0>         0.3101
     87 H44        -4.0841   -3.7053    0.9020 H         1 <0>         0.3087
     88 H45        -1.5986    3.1289   -3.0773 H         1 <0>         0.4846
     89 H46        -8.5946   -8.3827   -3.6602 H         1 <0>         0.4194
     90 H47         1.8515   -6.8926    0.0654 H         1 <0>         0.4036
     91 H48         2.9636    1.7601   -1.6856 H         1 <0>         0.4114
     92 H49        -4.9061   -3.5934   -3.4159 H         1 <0>         0.3944
@<TRIPOS>BOND
     1    1    3 ar
     2    1    5 ar
     3    2    4 ar
     4    2    5 ar
     5    3    6 ar
     6    4    6 ar
     7    5   21 1
     8    6   40 1
     9    7   15 1
    10    7   34 am
    11    7   37 2
    12    8   27 1
    13    8   31 am
    14    8   38 2
    15    9   28 1
    16    9   35 am
    17    9   39 2
    18   10   32 1
    19   10   33 1
    20   10   36 1
    21   11   12 1
    22   11   16 1
    23   12   18 1
    24   13   15 1
    25   13   16 1
    26   14   17 1
    27   14   18 1
    28   15   31 1
    29   16   17 1
    30   17   31 1
    31   18   41 1
    32   19   29 1
    33   20   29 1
    34   21   28 1
    35   22   23 1
    36   22   25 1
    37   23   30 1
    38   24   27 1
    39   24   29 1
    40   25   36 1
    41   26   30 1
    42   26   42 1
    43   27   35 1
    44   28   43 1
    45   30   34 1
    46    1   44 1
    47    2   45 1
    48    3   46 1
    49    4   47 1
    50   11   48 1
    51   11   49 1
    52   12   50 1
    53   12   51 1
    54   13   52 1
    55   13   53 1
    56   14   54 1
    57   14   55 1
    58   15   56 1
    59   16   57 1
    60   17   58 1
    61   18   59 1
    62   19   60 1
    63   19   61 1
    64   19   62 1
    65   20   63 1
    66   20   64 1
    67   20   65 1
    68   21   66 1
    69   21   67 1
    70   22   68 1
    71   22   69 1
    72   23   70 1
    73   23   71 1
    74   24   72 1
    75   24   73 1
    76   25   74 1
    77   25   75 1
    78   26   76 1
    79   26   77 1
    80   27   78 1
    81   28   79 1
    82   29   80 1
    83   30   81 1
    84   32   82 1
    85   32   83 1
    86   33   84 1
    87   33   85 1
    88   34   86 1
    89   35   87 1
    90   36   88 1
    91   40   89 1
    92   41   90 1
    93   42   91 1
    94   43   92 1
@<TRIPOS>MOLECULE
1a2c_ligand_206
   92    94     0     0     0
SMALL
USER_CHARGES

mmff94s_NoEstat = 118.89
@<TRIPOS>ATOM
      1 C1         -7.0660   -4.9282   -2.9366 C.ar      1 <0>        -0.0708
      2 C2         -6.6866   -5.8628   -0.7412 C.ar      1 <0>        -0.0872
      3 C3         -7.8027   -6.0586   -3.2904 C.ar      1 <0>        -0.2241
      4 C4         -7.4233   -6.9931   -1.0950 C.ar      1 <0>        -0.1600
      5 C5         -6.5178   -4.8455   -1.6667 C.ar      1 <0>        -0.1356
      6 C6         -7.9813   -7.0911   -2.3696 C.ar      1 <0>         0.1290
      7 C7         -0.0512   -1.0561    0.2993 C.2       1 <0>         0.6664
      8 C8         -1.8469   -3.0457    2.1630 C.2       1 <0>         0.6651
      9 C9         -3.4040   -2.7670   -0.8258 C.2       1 <0>         0.6454
     10 C10        -3.5369    3.9433   -5.1013 C.cat     1 <0>         0.6349
     11 C11         2.5186   -3.1911    0.6823 C.3       1 <0>        -0.0642
     12 C12         2.4580   -4.6414    0.2376 C.3       1 <0>        -0.0747
     13 C13         1.4874   -1.4827    2.2418 C.3       1 <0>        -0.0873
     14 C14         0.4946   -5.0934    1.7133 C.3       1 <0>        -0.1371
     15 C15         0.0412   -1.4176    1.7503 C.3       1 <0>         0.0360
     16 C16         1.8865   -2.9529    2.0632 C.3       1 <0>        -0.0720
     17 C17         0.5665   -3.7001    2.3454 C.3       1 <0>         0.1201
     18 C18         1.0248   -5.1525    0.2868 C.3       1 <0>         0.1453
     19 C19        -5.7275   -1.2982    0.9287 C.3       1 <0>        -0.0968
     20 C20        -4.2097    0.6462    1.3473 C.3       1 <0>        -0.0986
     21 C21        -5.7209   -3.6214   -1.2834 C.3       1 <0>        -0.0191
     22 C22        -0.9951    2.0137   -3.0747 C.3       1 <0>        -0.1009
     23 C23        -0.8794    1.4488   -1.6540 C.3       1 <0>        -0.0942
     24 C24        -3.7699   -1.5150    2.5525 C.3       1 <0>        -0.0988
     25 C25        -2.3255    2.7368   -3.2725 C.3       1 <0>         0.1966
     26 C26         1.6856    1.6412   -1.5001 C.3       1 <0>         0.1128
     27 C27        -2.8325   -2.1090    1.5076 C.3       1 <0>         0.0786
     28 C28        -4.2317   -3.7794   -1.6077 C.3       1 <0>         0.0744
     29 C29        -4.8597   -0.5919    1.9712 C.3       1 <0>        -0.0678
     30 C30         0.4555    0.7445   -1.3388 C.3       1 <0>         0.1065
     31 N1         -0.4979   -2.7598    1.9615 N.am      1 <0>        -0.4315
     32 N2         -3.5770    4.4221   -6.4067 N.pl3     1 <0>        -0.8671
     33 N3         -4.6286    4.1576   -4.2668 N.pl3     1 <0>        -0.8581
     34 N4          0.4455    0.1980   -0.0008 N.am      1 <0>        -0.5687
     35 N5         -3.5026   -2.9419    0.5527 N.am      1 <0>        -0.5746
     36 N6         -2.4134    3.2499   -4.6190 N.pl3     1 <0>        -0.7533
     37 O1         -0.5362   -1.8555   -0.4928 O.2       1 <0>        -0.5843
     38 O2         -2.2659   -3.9924    2.8322 O.2       1 <0>        -0.6812
     39 O3         -2.7407   -1.8909   -1.3761 O.2       1 <0>        -0.5788
     40 O4         -8.7016   -8.1934   -2.7144 O.3       1 <0>        -0.4938
     41 O5          0.9879   -6.5072   -0.1510 O.3       1 <0>        -0.6030
     42 O6          1.5971    2.7470   -0.6113 O.3       1 <0>        -0.5860
     43 O7         -4.0332   -3.5405   -2.9937 O.3       1 <0>        -0.6021
     44 H1         -6.9320   -4.1292   -3.6606 H         1 <0>         0.1412
     45 H2         -6.2556   -5.7950    0.2544 H         1 <0>         0.1451
     46 H3         -8.2349   -6.1289   -4.2847 H         1 <0>         0.1336
     47 H4         -7.5597   -7.7939   -0.3729 H         1 <0>         0.1567
     48 H5          3.5627   -2.8549    0.7003 H         1 <0>         0.0649
     49 H6          2.0259   -2.5829   -0.0837 H         1 <0>         0.0476
     50 H7          2.8567   -4.7427   -0.7790 H         1 <0>         0.0641
     51 H8          3.1032   -5.2618    0.8729 H         1 <0>         0.0484
     52 H9          2.1569   -0.7868    1.7257 H         1 <0>         0.0596
     53 H10         1.5124   -1.2395    3.3116 H         1 <0>         0.0757
     54 H11         1.0921   -5.7802    2.3299 H         1 <0>         0.0782
     55 H12        -0.5175   -5.5090    1.7393 H         1 <0>         0.0812
     56 H13        -0.5378   -0.6778    2.3126 H         1 <0>         0.0731
     57 H14         2.6304   -3.2407    2.8169 H         1 <0>         0.0511
     58 H15         0.4523   -3.8218    3.4319 H         1 <0>         0.0753
     59 H16         0.3841   -4.5700   -0.3844 H         1 <0>         0.0427
     60 H17        -6.4424   -0.5993    0.4810 H         1 <0>         0.0450
     61 H18        -6.3080   -2.1101    1.3767 H         1 <0>         0.0406
     62 H19        -5.1167   -1.7184    0.1225 H         1 <0>         0.0274
     63 H20        -3.5507    0.3732    0.5159 H         1 <0>         0.0476
     64 H21        -4.9709    1.3343    0.9644 H         1 <0>         0.0170
     65 H22        -3.6139    1.1889    2.0888 H         1 <0>         0.0477
     66 H23        -5.8540   -3.4265   -0.2108 H         1 <0>         0.0814
     67 H24        -6.1504   -2.7541   -1.8005 H         1 <0>         0.0685
     68 H25        -0.1747    2.7139   -3.2707 H         1 <0>         0.1016
     69 H26        -0.9072    1.2071   -3.8124 H         1 <0>         0.0660
     70 H27        -1.7000    0.7382   -1.4859 H         1 <0>         0.0512
     71 H28        -1.0340    2.2618   -0.9330 H         1 <0>         0.0454
     72 H29        -3.1790   -0.9587    3.2928 H         1 <0>         0.0575
     73 H30        -4.2588   -2.3274    3.1083 H         1 <0>         0.0743
     74 H31        -2.4148    3.5682   -2.5653 H         1 <0>         0.0662
     75 H32        -3.1633    2.0548   -3.0947 H         1 <0>         0.0622
     76 H33         1.7842    2.0214   -2.5223 H         1 <0>         0.0321
     77 H34         2.5988    1.0866   -1.2555 H         1 <0>         0.0204
     78 H35        -2.2612   -1.3523    0.9714 H         1 <0>         0.0749
     79 H36        -3.8738   -4.7901   -1.3784 H         1 <0>         0.0719
     80 H37        -5.5109   -0.2494    2.7849 H         1 <0>         0.0609
     81 H38         0.5463   -0.0881   -2.0483 H         1 <0>         0.1063
     82 H39        -2.8022    4.2908   -7.0514 H         1 <0>         0.4792
     83 H40        -4.3907    4.9244   -6.7542 H         1 <0>         0.4819
     84 H41        -4.6325    3.8212   -3.3069 H         1 <0>         0.4802
     85 H42        -5.4525    4.6557   -4.5950 H         1 <0>         0.4826
     86 H43         0.8216    0.7626    0.7549 H         1 <0>         0.3101
     87 H44        -4.0841   -3.7053    0.9020 H         1 <0>         0.3087
     88 H45        -1.6358    3.1197   -5.2774 H         1 <0>         0.4846
     89 H46        -8.5946   -8.3827   -3.6602 H         1 <0>         0.4194
     90 H47         1.8515   -6.8926    0.0654 H         1 <0>         0.4036
     91 H48         1.0115    3.3975   -1.0313 H         1 <0>         0.4114
     92 H49        -4.9061   -3.5934   -3.4159 H         1 <0>         0.3944
@<TRIPOS>BOND
     1    1    3 ar
     2    1    5 ar
     3    2    4 ar
     4    2    5 ar
     5    3    6 ar
     6    4    6 ar
     7    5   21 1
     8    6   40 1
     9    7   15 1
    10    7   34 am
    11    7   37 2
    12    8   27 1
    13    8   31 am
    14    8   38 2
    15    9   28 1
    16    9   35 am
    17    9   39 2
    18   10   32 1
    19   10   33 1
    20   10   36 1
    21   11   12 1
    22   11   16 1
    23   12   18 1
    24   13   15 1
    25   13   16 1
    26   14   17 1
    27   14   18 1
    28   15   31 1
    29   16   17 1
    30   17   31 1
    31   18   41 1
    32   19   29 1
    33   20   29 1
    34   21   28 1
    35   22   23 1
    36   22   25 1
    37   23   30 1
    38   24   27 1
    39   24   29 1
    40   25   36 1
    41   26   30 1
    42   26   42 1
    43   27   35 1
    44   28   43 1
    45   30   34 1
    46    1   44 1
    47    2   45 1
    48    3   46 1
    49    4   47 1
    50   11   48 1
    51   11   49 1
    52   12   50 1
    53   12   51 1
    54   13   52 1
    55   13   53 1
    56   14   54 1
    57   14   55 1
    58   15   56 1
    59   16   57 1
    60   17   58 1
    61   18   59 1
    62   19   60 1
    63   19   61 1
    64   19   62 1
    65   20   63 1
    66   20   64 1
    67   20   65 1
    68   21   66 1
    69   21   67 1
    70   22   68 1
    71   22   69 1
    72   23   70 1
    73   23   71 1
    74   24   72 1
    75   24   73 1
    76   25   74 1
    77   25   75 1
    78   26   76 1
    79   26   77 1
    80   27   78 1
    81   28   79 1
    82   29   80 1
    83   30   81 1
    84   32   82 1
    85   32   83 1
    86   33   84 1
    87   33   85 1
    88   34   86 1
    89   35   87 1
    90   36   88 1
    91   40   89 1
    92   41   90 1
    93   42   91 1
    94   43   92 1
@<TRIPOS>MOLECULE
1a2c_ligand_207
   92    94     0     0     0
SMALL
USER_CHARGES

mmff94s_NoEstat = 119.00
@<TRIPOS>ATOM
      1 C1         -7.0660   -4.9282   -2.9366 C.ar      1 <0>        -0.0708
      2 C2         -6.6866   -5.8628   -0.7412 C.ar      1 <0>        -0.0872
      3 C3         -7.8027   -6.0586   -3.2904 C.ar      1 <0>        -0.2241
      4 C4         -7.4233   -6.9931   -1.0950 C.ar      1 <0>        -0.1600
      5 C5         -6.5178   -4.8455   -1.6667 C.ar      1 <0>        -0.1356
      6 C6         -7.9813   -7.0911   -2.3696 C.ar      1 <0>         0.1290
      7 C7         -0.0512   -1.0561    0.2993 C.2       1 <0>         0.6664
      8 C8         -1.8469   -3.0457    2.1630 C.2       1 <0>         0.6651
      9 C9         -3.4040   -2.7670   -0.8258 C.2       1 <0>         0.6454
     10 C10        -2.4515    4.9743    1.3401 C.cat     1 <0>         0.6349
     11 C11         2.5186   -3.1911    0.6823 C.3       1 <0>        -0.0642
     12 C12         2.4580   -4.6414    0.2376 C.3       1 <0>        -0.0747
     13 C13         1.4874   -1.4827    2.2418 C.3       1 <0>        -0.0873
     14 C14         0.4946   -5.0934    1.7133 C.3       1 <0>        -0.1371
     15 C15         0.0412   -1.4176    1.7503 C.3       1 <0>         0.0360
     16 C16         1.8865   -2.9529    2.0632 C.3       1 <0>        -0.0720
     17 C17         0.5665   -3.7001    2.3454 C.3       1 <0>         0.1201
     18 C18         1.0248   -5.1525    0.2868 C.3       1 <0>         0.1453
     19 C19        -5.7275   -1.2982    0.9287 C.3       1 <0>        -0.0968
     20 C20        -4.2097    0.6462    1.3473 C.3       1 <0>        -0.0986
     21 C21        -5.7209   -3.6214   -1.2834 C.3       1 <0>        -0.0191
     22 C22        -1.0374    2.7415   -0.6235 C.3       1 <0>        -0.1009
     23 C23         0.2513    2.2726   -1.3090 C.3       1 <0>        -0.0942
     24 C24        -3.7699   -1.5150    2.5525 C.3       1 <0>        -0.0988
     25 C25        -1.1758    4.2607   -0.6924 C.3       1 <0>         0.1966
     26 C26         1.7383    0.3016   -2.0469 C.3       1 <0>         0.1128
     27 C27        -2.8325   -2.1090    1.5076 C.3       1 <0>         0.0786
     28 C28        -4.2317   -3.7794   -1.6077 C.3       1 <0>         0.0744
     29 C29        -4.8597   -0.5919    1.9712 C.3       1 <0>        -0.0678
     30 C30         0.4555    0.7445   -1.3388 C.3       1 <0>         0.1065
     31 N1         -0.4979   -2.7598    1.9615 N.am      1 <0>        -0.4315
     32 N2         -3.6443    5.3738    1.9338 N.pl3     1 <0>        -0.8671
     33 N3         -1.3064    4.8702    2.1224 N.pl3     1 <0>        -0.8581
     34 N4          0.4455    0.1980   -0.0008 N.am      1 <0>        -0.5687
     35 N5         -3.5026   -2.9419    0.5527 N.am      1 <0>        -0.5746
     36 N6         -2.3904    4.6766   -0.0323 N.pl3     1 <0>        -0.7533
     37 O1         -0.5362   -1.8555   -0.4928 O.2       1 <0>        -0.5843
     38 O2         -2.2659   -3.9924    2.8322 O.2       1 <0>        -0.6812
     39 O3         -2.7407   -1.8909   -1.3761 O.2       1 <0>        -0.5788
     40 O4         -8.7016   -8.1934   -2.7144 O.3       1 <0>        -0.4938
     41 O5          0.9879   -6.5072   -0.1510 O.3       1 <0>        -0.6030
     42 O6          2.8703    0.8436   -1.3793 O.3       1 <0>        -0.5860
     43 O7         -4.0332   -3.5405   -2.9937 O.3       1 <0>        -0.6021
     44 H1         -6.9320   -4.1292   -3.6606 H         1 <0>         0.1412
     45 H2         -6.2556   -5.7950    0.2544 H         1 <0>         0.1451
     46 H3         -8.2349   -6.1289   -4.2847 H         1 <0>         0.1336
     47 H4         -7.5597   -7.7939   -0.3729 H         1 <0>         0.1567
     48 H5          3.5627   -2.8549    0.7003 H         1 <0>         0.0649
     49 H6          2.0259   -2.5829   -0.0837 H         1 <0>         0.0476
     50 H7          2.8567   -4.7427   -0.7790 H         1 <0>         0.0641
     51 H8          3.1032   -5.2618    0.8729 H         1 <0>         0.0484
     52 H9          2.1569   -0.7868    1.7257 H         1 <0>         0.0596
     53 H10         1.5124   -1.2395    3.3116 H         1 <0>         0.0757
     54 H11         1.0921   -5.7802    2.3299 H         1 <0>         0.0782
     55 H12        -0.5175   -5.5090    1.7393 H         1 <0>         0.0812
     56 H13        -0.5378   -0.6778    2.3126 H         1 <0>         0.0731
     57 H14         2.6304   -3.2407    2.8169 H         1 <0>         0.0511
     58 H15         0.4523   -3.8218    3.4319 H         1 <0>         0.0753
     59 H16         0.3841   -4.5700   -0.3844 H         1 <0>         0.0427
     60 H17        -6.4424   -0.5993    0.4810 H         1 <0>         0.0450
     61 H18        -6.3080   -2.1101    1.3767 H         1 <0>         0.0406
     62 H19        -5.1167   -1.7184    0.1225 H         1 <0>         0.0274
     63 H20        -3.5507    0.3732    0.5159 H         1 <0>         0.0476
     64 H21        -4.9709    1.3343    0.9644 H         1 <0>         0.0170
     65 H22        -3.6139    1.1889    2.0888 H         1 <0>         0.0477
     66 H23        -5.8540   -3.4265   -0.2108 H         1 <0>         0.0814
     67 H24        -6.1504   -2.7541   -1.8005 H         1 <0>         0.0685
     68 H25        -1.9092    2.2808   -1.1025 H         1 <0>         0.1016
     69 H26        -1.0467    2.4234    0.4259 H         1 <0>         0.0660
     70 H27         1.1110    2.7323   -0.8028 H         1 <0>         0.0512
     71 H28         0.2685    2.6560   -2.3373 H         1 <0>         0.0454
     72 H29        -3.1790   -0.9587    3.2928 H         1 <0>         0.0575
     73 H30        -4.2588   -2.3274    3.1083 H         1 <0>         0.0743
     74 H31        -1.2027    4.5928   -1.7356 H         1 <0>         0.0662
     75 H32        -0.3220    4.7463   -0.2087 H         1 <0>         0.0622
     76 H33         1.7614    0.6251   -3.0928 H         1 <0>         0.0321
     77 H34         1.8289   -0.7905   -2.0281 H         1 <0>         0.0204
     78 H35        -2.2612   -1.3523    0.9714 H         1 <0>         0.0749
     79 H36        -3.8738   -4.7901   -1.3784 H         1 <0>         0.0719
     80 H37        -5.5109   -0.2494    2.7849 H         1 <0>         0.0609
     81 H38        -0.3978    0.3245   -1.8868 H         1 <0>         0.1063
     82 H39        -4.5053    5.4657    1.4014 H         1 <0>         0.4792
     83 H40        -3.6869    5.5895    2.9271 H         1 <0>         0.4819
     84 H41        -0.4179    4.5810    1.7206 H         1 <0>         0.4802
     85 H42        -1.3278    5.0794    3.1176 H         1 <0>         0.4826
     86 H43         0.8216    0.7626    0.7549 H         1 <0>         0.3101
     87 H44        -4.0841   -3.7053    0.9020 H         1 <0>         0.3087
     88 H45        -3.2652    4.7701   -0.5626 H         1 <0>         0.4846
     89 H46        -8.5946   -8.3827   -3.6602 H         1 <0>         0.4194
     90 H47         1.8515   -6.8926    0.0654 H         1 <0>         0.4036
     91 H48         2.9636    1.7601   -1.6856 H         1 <0>         0.4114
     92 H49        -4.9061   -3.5934   -3.4159 H         1 <0>         0.3944
@<TRIPOS>BOND
     1    1    3 ar
     2    1    5 ar
     3    2    4 ar
     4    2    5 ar
     5    3    6 ar
     6    4    6 ar
     7    5   21 1
     8    6   40 1
     9    7   15 1
    10    7   34 am
    11    7   37 2
    12    8   27 1
    13    8   31 am
    14    8   38 2
    15    9   28 1
    16    9   35 am
    17    9   39 2
    18   10   32 1
    19   10   33 1
    20   10   36 1
    21   11   12 1
    22   11   16 1
    23   12   18 1
    24   13   15 1
    25   13   16 1
    26   14   17 1
    27   14   18 1
    28   15   31 1
    29   16   17 1
    30   17   31 1
    31   18   41 1
    32   19   29 1
    33   20   29 1
    34   21   28 1
    35   22   23 1
    36   22   25 1
    37   23   30 1
    38   24   27 1
    39   24   29 1
    40   25   36 1
    41   26   30 1
    42   26   42 1
    43   27   35 1
    44   28   43 1
    45   30   34 1
    46    1   44 1
    47    2   45 1
    48    3   46 1
    49    4   47 1
    50   11   48 1
    51   11   49 1
    52   12   50 1
    53   12   51 1
    54   13   52 1
    55   13   53 1
    56   14   54 1
    57   14   55 1
    58   15   56 1
    59   16   57 1
    60   17   58 1
    61   18   59 1
    62   19   60 1
    63   19   61 1
    64   19   62 1
    65   20   63 1
    66   20   64 1
    67   20   65 1
    68   21   66 1
    69   21   67 1
    70   22   68 1
    71   22   69 1
    72   23   70 1
    73   23   71 1
    74   24   72 1
    75   24   73 1
    76   25   74 1
    77   25   75 1
    78   26   76 1
    79   26   77 1
    80   27   78 1
    81   28   79 1
    82   29   80 1
    83   30   81 1
    84   32   82 1
    85   32   83 1
    86   33   84 1
    87   33   85 1
    88   34   86 1
    89   35   87 1
    90   36   88 1
    91   40   89 1
    92   41   90 1
    93   42   91 1
    94   43   92 1
@<TRIPOS>MOLECULE
1a2c_ligand_208
   92    94     0     0     0
SMALL
USER_CHARGES

mmff94s_NoEstat = 119.09
@<TRIPOS>ATOM
      1 C1         -7.0660   -4.9282   -2.9366 C.ar      1 <0>        -0.0708
      2 C2         -6.6866   -5.8628   -0.7412 C.ar      1 <0>        -0.0872
      3 C3         -7.8027   -6.0586   -3.2904 C.ar      1 <0>        -0.2241
      4 C4         -7.4233   -6.9931   -1.0950 C.ar      1 <0>        -0.1600
      5 C5         -6.5178   -4.8455   -1.6667 C.ar      1 <0>        -0.1356
      6 C6         -7.9813   -7.0911   -2.3696 C.ar      1 <0>         0.1290
      7 C7         -0.0512   -1.0561    0.2993 C.2       1 <0>         0.6664
      8 C8         -1.8469   -3.0457    2.1630 C.2       1 <0>         0.6651
      9 C9         -3.4040   -2.7670   -0.8258 C.2       1 <0>         0.6454
     10 C10         0.1087    6.2839    0.0320 C.cat     1 <0>         0.6349
     11 C11         2.5186   -3.1911    0.6823 C.3       1 <0>        -0.0642
     12 C12         2.4580   -4.6414    0.2376 C.3       1 <0>        -0.0747
     13 C13         1.4874   -1.4827    2.2418 C.3       1 <0>        -0.0873
     14 C14         0.4946   -5.0934    1.7133 C.3       1 <0>        -0.1371
     15 C15         0.0412   -1.4176    1.7503 C.3       1 <0>         0.0360
     16 C16         1.8865   -2.9529    2.0632 C.3       1 <0>        -0.0720
     17 C17         0.5665   -3.7001    2.3454 C.3       1 <0>         0.1201
     18 C18         1.0248   -5.1525    0.2868 C.3       1 <0>         0.1453
     19 C19        -5.7275   -1.2982    0.9287 C.3       1 <0>        -0.0968
     20 C20        -4.2097    0.6462    1.3473 C.3       1 <0>        -0.0986
     21 C21        -5.7209   -3.6214   -1.2834 C.3       1 <0>        -0.0191
     22 C22        -1.0374    2.7415   -0.6235 C.3       1 <0>        -0.1009
     23 C23         0.2513    2.2726   -1.3090 C.3       1 <0>        -0.0942
     24 C24        -3.7699   -1.5150    2.5525 C.3       1 <0>        -0.0988
     25 C25        -1.1758    4.2607   -0.6924 C.3       1 <0>         0.1966
     26 C26         1.7383    0.3016   -2.0469 C.3       1 <0>         0.1128
     27 C27        -2.8325   -2.1090    1.5076 C.3       1 <0>         0.0786
     28 C28        -4.2317   -3.7794   -1.6077 C.3       1 <0>         0.0744
     29 C29        -4.8597   -0.5919    1.9712 C.3       1 <0>        -0.0678
     30 C30         0.4555    0.7445   -1.3388 C.3       1 <0>         0.1065
     31 N1         -0.4979   -2.7598    1.9615 N.am      1 <0>        -0.4315
     32 N2          1.2089    6.8461    0.6711 N.pl3     1 <0>        -0.8671
     33 N3         -0.8437    7.1205   -0.5399 N.pl3     1 <0>        -0.8581
     34 N4          0.4455    0.1980   -0.0008 N.am      1 <0>        -0.5687
     35 N5         -3.5026   -2.9419    0.5527 N.am      1 <0>        -0.5746
     36 N6         -0.0506    4.8893   -0.0421 N.pl3     1 <0>        -0.7533
     37 O1         -0.5362   -1.8555   -0.4928 O.2       1 <0>        -0.5843
     38 O2         -2.2659   -3.9924    2.8322 O.2       1 <0>        -0.6812
     39 O3         -2.7407   -1.8909   -1.3761 O.2       1 <0>        -0.5788
     40 O4         -8.7016   -8.1934   -2.7144 O.3       1 <0>        -0.4938
     41 O5          0.9879   -6.5072   -0.1510 O.3       1 <0>        -0.6030
     42 O6          1.7296    0.7591   -3.3929 O.3       1 <0>        -0.5860
     43 O7         -4.0332   -3.5405   -2.9937 O.3       1 <0>        -0.6021
     44 H1         -6.9320   -4.1292   -3.6606 H         1 <0>         0.1412
     45 H2         -6.2556   -5.7950    0.2544 H         1 <0>         0.1451
     46 H3         -8.2349   -6.1289   -4.2847 H         1 <0>         0.1336
     47 H4         -7.5597   -7.7939   -0.3729 H         1 <0>         0.1567
     48 H5          3.5627   -2.8549    0.7003 H         1 <0>         0.0649
     49 H6          2.0259   -2.5829   -0.0837 H         1 <0>         0.0476
     50 H7          2.8567   -4.7427   -0.7790 H         1 <0>         0.0641
     51 H8          3.1032   -5.2618    0.8729 H         1 <0>         0.0484
     52 H9          2.1569   -0.7868    1.7257 H         1 <0>         0.0596
     53 H10         1.5124   -1.2395    3.3116 H         1 <0>         0.0757
     54 H11         1.0921   -5.7802    2.3299 H         1 <0>         0.0782
     55 H12        -0.5175   -5.5090    1.7393 H         1 <0>         0.0812
     56 H13        -0.5378   -0.6778    2.3126 H         1 <0>         0.0731
     57 H14         2.6304   -3.2407    2.8169 H         1 <0>         0.0511
     58 H15         0.4523   -3.8218    3.4319 H         1 <0>         0.0753
     59 H16         0.3841   -4.5700   -0.3844 H         1 <0>         0.0427
     60 H17        -6.4424   -0.5993    0.4810 H         1 <0>         0.0450
     61 H18        -6.3080   -2.1101    1.3767 H         1 <0>         0.0406
     62 H19        -5.1167   -1.7184    0.1225 H         1 <0>         0.0274
     63 H20        -3.5507    0.3732    0.5159 H         1 <0>         0.0476
     64 H21        -4.9709    1.3343    0.9644 H         1 <0>         0.0170
     65 H22        -3.6139    1.1889    2.0888 H         1 <0>         0.0477
     66 H23        -5.8540   -3.4265   -0.2108 H         1 <0>         0.0814
     67 H24        -6.1504   -2.7541   -1.8005 H         1 <0>         0.0685
     68 H25        -1.9092    2.2808   -1.1025 H         1 <0>         0.1016
     69 H26        -1.0467    2.4234    0.4259 H         1 <0>         0.0660
     70 H27         1.1110    2.7323   -0.8028 H         1 <0>         0.0512
     71 H28         0.2685    2.6560   -2.3373 H         1 <0>         0.0454
     72 H29        -3.1790   -0.9587    3.2928 H         1 <0>         0.0575
     73 H30        -4.2588   -2.3274    3.1083 H         1 <0>         0.0743
     74 H31        -2.0997    4.5809   -0.1994 H         1 <0>         0.0662
     75 H32        -1.2190    4.5954   -1.7340 H         1 <0>         0.0622
     76 H33         1.8500   -0.7877   -2.0488 H         1 <0>         0.0321
     77 H34         2.6170    0.7313   -1.5524 H         1 <0>         0.0204
     78 H35        -2.2612   -1.3523    0.9714 H         1 <0>         0.0749
     79 H36        -3.8738   -4.7901   -1.3784 H         1 <0>         0.0719
     80 H37        -5.5109   -0.2494    2.7849 H         1 <0>         0.0609
     81 H38        -0.3978    0.3245   -1.8868 H         1 <0>         0.1063
     82 H39         1.9287    6.2742    1.1048 H         1 <0>         0.4792
     83 H40         1.3225    7.8557    0.7245 H         1 <0>         0.4819
     84 H41        -1.6601    6.7429   -1.0146 H         1 <0>         0.4802
     85 H42        -0.7481    8.1323   -0.4992 H         1 <0>         0.4826
     86 H43         0.8216    0.7626    0.7549 H         1 <0>         0.3101
     87 H44        -4.0841   -3.7053    0.9020 H         1 <0>         0.3087
     88 H45         0.6822    4.3187    0.3968 H         1 <0>         0.4846
     89 H46        -8.5946   -8.3827   -3.6602 H         1 <0>         0.4194
     90 H47         1.8515   -6.8926    0.0654 H         1 <0>         0.4036
     91 H48         1.1820    0.1356   -3.8968 H         1 <0>         0.4114
     92 H49        -4.9061   -3.5934   -3.4159 H         1 <0>         0.3944
@<TRIPOS>BOND
     1    1    3 ar
     2    1    5 ar
     3    2    4 ar
     4    2    5 ar
     5    3    6 ar
     6    4    6 ar
     7    5   21 1
     8    6   40 1
     9    7   15 1
    10    7   34 am
    11    7   37 2
    12    8   27 1
    13    8   31 am
    14    8   38 2
    15    9   28 1
    16    9   35 am
    17    9   39 2
    18   10   32 1
    19   10   33 1
    20   10   36 1
    21   11   12 1
    22   11   16 1
    23   12   18 1
    24   13   15 1
    25   13   16 1
    26   14   17 1
    27   14   18 1
    28   15   31 1
    29   16   17 1
    30   17   31 1
    31   18   41 1
    32   19   29 1
    33   20   29 1
    34   21   28 1
    35   22   23 1
    36   22   25 1
    37   23   30 1
    38   24   27 1
    39   24   29 1
    40   25   36 1
    41   26   30 1
    42   26   42 1
    43   27   35 1
    44   28   43 1
    45   30   34 1
    46    1   44 1
    47    2   45 1
    48    3   46 1
    49    4   47 1
    50   11   48 1
    51   11   49 1
    52   12   50 1
    53   12   51 1
    54   13   52 1
    55   13   53 1
    56   14   54 1
    57   14   55 1
    58   15   56 1
    59   16   57 1
    60   17   58 1
    61   18   59 1
    62   19   60 1
    63   19   61 1
    64   19   62 1
    65   20   63 1
    66   20   64 1
    67   20   65 1
    68   21   66 1
    69   21   67 1
    70   22   68 1
    71   22   69 1
    72   23   70 1
    73   23   71 1
    74   24   72 1
    75   24   73 1
    76   25   74 1
    77   25   75 1
    78   26   76 1
    79   26   77 1
    80   27   78 1
    81   28   79 1
    82   29   80 1
    83   30   81 1
    84   32   82 1
    85   32   83 1
    86   33   84 1
    87   33   85 1
    88   34   86 1
    89   35   87 1
    90   36   88 1
    91   40   89 1
    92   41   90 1
    93   42   91 1
    94   43   92 1
@<TRIPOS>MOLECULE
1a2c_ligand_209
   92    94     0     0     0
SMALL
USER_CHARGES

mmff94s_NoEstat = 119.14
@<TRIPOS>ATOM
      1 C1         -6.7567   -4.6738   -3.5933 C.ar      1 <0>        -0.0708
      2 C2         -7.3456   -4.9208   -1.2633 C.ar      1 <0>        -0.0872
      3 C3         -7.6642   -5.6785   -3.9292 C.ar      1 <0>        -0.2241
      4 C4         -8.2530   -5.9255   -1.5991 C.ar      1 <0>        -0.1600
      5 C5         -6.6096   -4.3084   -2.2649 C.ar      1 <0>        -0.1356
      6 C6         -8.4124   -6.3044   -2.9320 C.ar      1 <0>         0.1290
      7 C7         -0.0512   -1.0561    0.2993 C.2       1 <0>         0.6664
      8 C8         -1.8469   -3.0457    2.1630 C.2       1 <0>         0.6651
      9 C9         -3.4040   -2.7670   -0.8258 C.2       1 <0>         0.6454
     10 C10        -3.3500    0.4457   -4.1011 C.cat     1 <0>         0.6349
     11 C11         2.5186   -3.1911    0.6823 C.3       1 <0>        -0.0642
     12 C12         2.4580   -4.6414    0.2376 C.3       1 <0>        -0.0747
     13 C13         1.4874   -1.4827    2.2418 C.3       1 <0>        -0.0873
     14 C14         0.4946   -5.0934    1.7133 C.3       1 <0>        -0.1371
     15 C15         0.0412   -1.4176    1.7503 C.3       1 <0>         0.0360
     16 C16         1.8865   -2.9529    2.0632 C.3       1 <0>        -0.0720
     17 C17         0.5665   -3.7001    2.3454 C.3       1 <0>         0.1201
     18 C18         1.0248   -5.1525    0.2868 C.3       1 <0>         0.1453
     19 C19        -5.7275   -1.2982    0.9287 C.3       1 <0>        -0.0968
     20 C20        -4.2097    0.6462    1.3473 C.3       1 <0>        -0.0986
     21 C21        -5.6277   -3.2203   -1.9015 C.3       1 <0>        -0.0191
     22 C22        -0.5396    2.6263   -2.8210 C.3       1 <0>        -0.1009
     23 C23        -0.4337    2.0012   -1.4250 C.3       1 <0>        -0.0942
     24 C24        -3.7699   -1.5150    2.5525 C.3       1 <0>        -0.0988
     25 C25        -1.1768    1.6547   -3.8119 C.3       1 <0>         0.1966
     26 C26         1.9058    0.9774   -1.7696 C.3       1 <0>         0.1128
     27 C27        -2.8325   -2.1090    1.5076 C.3       1 <0>         0.0786
     28 C28        -4.2317   -3.7794   -1.6077 C.3       1 <0>         0.0744
     29 C29        -4.8597   -0.5919    1.9712 C.3       1 <0>        -0.0678
     30 C30         0.4555    0.7445   -1.3388 C.3       1 <0>         0.1065
     31 N1         -0.4979   -2.7598    1.9615 N.am      1 <0>        -0.4315
     32 N2         -4.6259    0.1367   -3.6415 N.pl3     1 <0>        -0.8671
     33 N3         -2.9073   -0.1094   -5.2969 N.pl3     1 <0>        -0.8581
     34 N4          0.4455    0.1980   -0.0008 N.am      1 <0>        -0.5687
     35 N5         -3.5026   -2.9419    0.5527 N.am      1 <0>        -0.5746
     36 N6         -2.5084    1.3070   -3.3760 N.pl3     1 <0>        -0.7533
     37 O1         -0.5362   -1.8555   -0.4928 O.2       1 <0>        -0.5843
     38 O2         -2.2659   -3.9924    2.8322 O.2       1 <0>        -0.6812
     39 O3         -2.7407   -1.8909   -1.3761 O.2       1 <0>        -0.5788
     40 O4         -9.2991   -7.2836   -3.2599 O.3       1 <0>        -0.4938
     41 O5          0.9879   -6.5072   -0.1510 O.3       1 <0>        -0.6030
     42 O6          2.6391   -0.2366   -1.6731 O.3       1 <0>        -0.5860
     43 O7         -3.5703   -4.0395   -2.8375 O.3       1 <0>        -0.6021
     44 H1         -6.1783   -4.1922   -4.3770 H         1 <0>         0.1412
     45 H2         -7.2282   -4.6319   -0.2220 H         1 <0>         0.1451
     46 H3         -7.7839   -5.9690   -4.9692 H         1 <0>         0.1336
     47 H4         -8.8337   -6.4088   -0.8178 H         1 <0>         0.1567
     48 H5          3.5627   -2.8549    0.7003 H         1 <0>         0.0649
     49 H6          2.0259   -2.5829   -0.0837 H         1 <0>         0.0476
     50 H7          2.8567   -4.7427   -0.7790 H         1 <0>         0.0641
     51 H8          3.1032   -5.2618    0.8729 H         1 <0>         0.0484
     52 H9          2.1569   -0.7868    1.7257 H         1 <0>         0.0596
     53 H10         1.5124   -1.2395    3.3116 H         1 <0>         0.0757
     54 H11         1.0921   -5.7802    2.3299 H         1 <0>         0.0782
     55 H12        -0.5175   -5.5090    1.7393 H         1 <0>         0.0812
     56 H13        -0.5378   -0.6778    2.3126 H         1 <0>         0.0731
     57 H14         2.6304   -3.2407    2.8169 H         1 <0>         0.0511
     58 H15         0.4523   -3.8218    3.4319 H         1 <0>         0.0753
     59 H16         0.3841   -4.5700   -0.3844 H         1 <0>         0.0427
     60 H17        -6.4424   -0.5993    0.4810 H         1 <0>         0.0450
     61 H18        -6.3080   -2.1101    1.3767 H         1 <0>         0.0406
     62 H19        -5.1167   -1.7184    0.1225 H         1 <0>         0.0274
     63 H20        -3.5507    0.3732    0.5159 H         1 <0>         0.0476
     64 H21        -4.9709    1.3343    0.9644 H         1 <0>         0.0170
     65 H22        -3.6139    1.1889    2.0888 H         1 <0>         0.0477
     66 H23        -6.0051   -2.6719   -1.0280 H         1 <0>         0.0814
     67 H24        -5.5997   -2.4925   -2.7222 H         1 <0>         0.0685
     68 H25        -1.1414    3.5417   -2.7803 H         1 <0>         0.1016
     69 H26         0.4540    2.9154   -3.1840 H         1 <0>         0.0660
     70 H27        -1.4419    1.7433   -1.0734 H         1 <0>         0.0512
     71 H28        -0.0553    2.7561   -0.7237 H         1 <0>         0.0454
     72 H29        -3.1790   -0.9587    3.2928 H         1 <0>         0.0575
     73 H30        -4.2588   -2.3274    3.1083 H         1 <0>         0.0743
     74 H31        -0.5754    0.7428   -3.8900 H         1 <0>         0.0662
     75 H32        -1.2333    2.1046   -4.8084 H         1 <0>         0.0622
     76 H33         2.4001    1.7344   -1.1517 H         1 <0>         0.0321
     77 H34         1.9468    1.3120   -2.8125 H         1 <0>         0.0204
     78 H35        -2.2612   -1.3523    0.9714 H         1 <0>         0.0749
     79 H36        -4.2834   -4.7163   -1.0404 H         1 <0>         0.0719
     80 H37        -5.5109   -0.2494    2.7849 H         1 <0>         0.0609
     81 H38         0.0149    0.0012   -2.0158 H         1 <0>         0.1063
     82 H39        -4.9910    0.5172   -2.7724 H         1 <0>         0.4792
     83 H40        -5.2337   -0.4873   -4.1671 H         1 <0>         0.4819
     84 H41        -1.9802    0.0953   -5.6619 H         1 <0>         0.4802
     85 H42        -3.4997   -0.7341   -5.8386 H         1 <0>         0.4826
     86 H43         0.8216    0.7626    0.7549 H         1 <0>         0.3101
     87 H44        -4.0841   -3.7053    0.9020 H         1 <0>         0.3087
     88 H45        -2.8856    1.6887   -2.5001 H         1 <0>         0.4846
     89 H46        -8.9810   -7.7812   -4.0301 H         1 <0>         0.4194
     90 H47         1.8515   -6.8926    0.0654 H         1 <0>         0.4036
     91 H48         2.8853   -0.3414   -0.7399 H         1 <0>         0.4114
     92 H49        -4.2525   -4.0407   -3.5287 H         1 <0>         0.3944
@<TRIPOS>BOND
     1    1    3 ar
     2    1    5 ar
     3    2    4 ar
     4    2    5 ar
     5    3    6 ar
     6    4    6 ar
     7    5   21 1
     8    6   40 1
     9    7   15 1
    10    7   34 am
    11    7   37 2
    12    8   27 1
    13    8   31 am
    14    8   38 2
    15    9   28 1
    16    9   35 am
    17    9   39 2
    18   10   32 1
    19   10   33 1
    20   10   36 1
    21   11   12 1
    22   11   16 1
    23   12   18 1
    24   13   15 1
    25   13   16 1
    26   14   17 1
    27   14   18 1
    28   15   31 1
    29   16   17 1
    30   17   31 1
    31   18   41 1
    32   19   29 1
    33   20   29 1
    34   21   28 1
    35   22   23 1
    36   22   25 1
    37   23   30 1
    38   24   27 1
    39   24   29 1
    40   25   36 1
    41   26   30 1
    42   26   42 1
    43   27   35 1
    44   28   43 1
    45   30   34 1
    46    1   44 1
    47    2   45 1
    48    3   46 1
    49    4   47 1
    50   11   48 1
    51   11   49 1
    52   12   50 1
    53   12   51 1
    54   13   52 1
    55   13   53 1
    56   14   54 1
    57   14   55 1
    58   15   56 1
    59   16   57 1
    60   17   58 1
    61   18   59 1
    62   19   60 1
    63   19   61 1
    64   19   62 1
    65   20   63 1
    66   20   64 1
    67   20   65 1
    68   21   66 1
    69   21   67 1
    70   22   68 1
    71   22   69 1
    72   23   70 1
    73   23   71 1
    74   24   72 1
    75   24   73 1
    76   25   74 1
    77   25   75 1
    78   26   76 1
    79   26   77 1
    80   27   78 1
    81   28   79 1
    82   29   80 1
    83   30   81 1
    84   32   82 1
    85   32   83 1
    86   33   84 1
    87   33   85 1
    88   34   86 1
    89   35   87 1
    90   36   88 1
    91   40   89 1
    92   41   90 1
    93   42   91 1
    94   43   92 1
@<TRIPOS>MOLECULE
1a2c_ligand_210
   92    94     0     0     0
SMALL
USER_CHARGES

mmff94s_NoEstat = 119.24
@<TRIPOS>ATOM
      1 C1         -7.0660   -4.9282   -2.9366 C.ar      1 <0>        -0.0708
      2 C2         -6.6866   -5.8628   -0.7412 C.ar      1 <0>        -0.0872
      3 C3         -7.8027   -6.0586   -3.2904 C.ar      1 <0>        -0.2241
      4 C4         -7.4233   -6.9931   -1.0950 C.ar      1 <0>        -0.1600
      5 C5         -6.5178   -4.8455   -1.6667 C.ar      1 <0>        -0.1356
      6 C6         -7.9813   -7.0911   -2.3696 C.ar      1 <0>         0.1290
      7 C7         -0.0512   -1.0561    0.2993 C.2       1 <0>         0.6664
      8 C8         -1.8469   -3.0457    2.1630 C.2       1 <0>         0.6651
      9 C9         -3.4040   -2.7670   -0.8258 C.2       1 <0>         0.6454
     10 C10        -0.1924    6.4494   -4.0524 C.cat     1 <0>         0.6349
     11 C11         2.5186   -3.1911    0.6823 C.3       1 <0>        -0.0642
     12 C12         2.4580   -4.6414    0.2376 C.3       1 <0>        -0.0747
     13 C13         1.4874   -1.4827    2.2418 C.3       1 <0>        -0.0873
     14 C14         0.4946   -5.0934    1.7133 C.3       1 <0>        -0.1371
     15 C15         0.0412   -1.4176    1.7503 C.3       1 <0>         0.0360
     16 C16         1.8865   -2.9529    2.0632 C.3       1 <0>        -0.0720
     17 C17         0.5665   -3.7001    2.3454 C.3       1 <0>         0.1201
     18 C18         1.0248   -5.1525    0.2868 C.3       1 <0>         0.1453
     19 C19        -5.7275   -1.2982    0.9287 C.3       1 <0>        -0.0968
     20 C20        -4.2097    0.6462    1.3473 C.3       1 <0>        -0.0986
     21 C21        -5.7209   -3.6214   -1.2834 C.3       1 <0>        -0.0191
     22 C22         0.1864    2.9452   -2.6852 C.3       1 <0>        -0.1009
     23 C23         0.2513    2.2726   -1.3090 C.3       1 <0>        -0.0942
     24 C24        -3.7699   -1.5150    2.5525 C.3       1 <0>        -0.0988
     25 C25         0.0377    4.4591   -2.5512 C.3       1 <0>         0.1966
     26 C26         1.7383    0.3016   -2.0469 C.3       1 <0>         0.1128
     27 C27        -2.8325   -2.1090    1.5076 C.3       1 <0>         0.0786
     28 C28        -4.2317   -3.7794   -1.6077 C.3       1 <0>         0.0744
     29 C29        -4.8597   -0.5919    1.9712 C.3       1 <0>        -0.0678
     30 C30         0.4555    0.7445   -1.3388 C.3       1 <0>         0.1065
     31 N1         -0.4979   -2.7598    1.9615 N.am      1 <0>        -0.4315
     32 N2         -0.2513    6.9915   -5.3321 N.pl3     1 <0>        -0.8671
     33 N3         -0.2955    7.2945   -2.9528 N.pl3     1 <0>        -0.8581
     34 N4          0.4455    0.1980   -0.0008 N.am      1 <0>        -0.5687
     35 N5         -3.5026   -2.9419    0.5527 N.am      1 <0>        -0.5746
     36 N6         -0.0310    5.0665   -3.8590 N.pl3     1 <0>        -0.7533
     37 O1         -0.5362   -1.8555   -0.4928 O.2       1 <0>        -0.5843
     38 O2         -2.2659   -3.9924    2.8322 O.2       1 <0>        -0.6812
     39 O3         -2.7407   -1.8909   -1.3761 O.2       1 <0>        -0.5788
     40 O4         -8.7016   -8.1934   -2.7144 O.3       1 <0>        -0.4938
     41 O5          0.9879   -6.5072   -0.1510 O.3       1 <0>        -0.6030
     42 O6          2.8703    0.8436   -1.3793 O.3       1 <0>        -0.5860
     43 O7         -4.0332   -3.5405   -2.9937 O.3       1 <0>        -0.6021
     44 H1         -6.9320   -4.1292   -3.6606 H         1 <0>         0.1412
     45 H2         -6.2556   -5.7950    0.2544 H         1 <0>         0.1451
     46 H3         -8.2349   -6.1289   -4.2847 H         1 <0>         0.1336
     47 H4         -7.5597   -7.7939   -0.3729 H         1 <0>         0.1567
     48 H5          3.5627   -2.8549    0.7003 H         1 <0>         0.0649
     49 H6          2.0259   -2.5829   -0.0837 H         1 <0>         0.0476
     50 H7          2.8567   -4.7427   -0.7790 H         1 <0>         0.0641
     51 H8          3.1032   -5.2618    0.8729 H         1 <0>         0.0484
     52 H9          2.1569   -0.7868    1.7257 H         1 <0>         0.0596
     53 H10         1.5124   -1.2395    3.3116 H         1 <0>         0.0757
     54 H11         1.0921   -5.7802    2.3299 H         1 <0>         0.0782
     55 H12        -0.5175   -5.5090    1.7393 H         1 <0>         0.0812
     56 H13        -0.5378   -0.6778    2.3126 H         1 <0>         0.0731
     57 H14         2.6304   -3.2407    2.8169 H         1 <0>         0.0511
     58 H15         0.4523   -3.8218    3.4319 H         1 <0>         0.0753
     59 H16         0.3841   -4.5700   -0.3844 H         1 <0>         0.0427
     60 H17        -6.4424   -0.5993    0.4810 H         1 <0>         0.0450
     61 H18        -6.3080   -2.1101    1.3767 H         1 <0>         0.0406
     62 H19        -5.1167   -1.7184    0.1225 H         1 <0>         0.0274
     63 H20        -3.5507    0.3732    0.5159 H         1 <0>         0.0476
     64 H21        -4.9709    1.3343    0.9644 H         1 <0>         0.0170
     65 H22        -3.6139    1.1889    2.0888 H         1 <0>         0.0477
     66 H23        -5.8540   -3.4265   -0.2108 H         1 <0>         0.0814
     67 H24        -6.1504   -2.7541   -1.8005 H         1 <0>         0.0685
     68 H25         1.0953    2.7243   -3.2569 H         1 <0>         0.1016
     69 H26        -0.6566    2.5474   -3.2629 H         1 <0>         0.0660
     70 H27        -0.6751    2.4928   -0.7614 H         1 <0>         0.0512
     71 H28         1.0606    2.7304   -0.7258 H         1 <0>         0.0454
     72 H29        -3.1790   -0.9587    3.2928 H         1 <0>         0.0575
     73 H30        -4.2588   -2.3274    3.1083 H         1 <0>         0.0743
     74 H31         0.8899    4.8778   -2.0056 H         1 <0>         0.0662
     75 H32        -0.8713    4.7077   -1.9937 H         1 <0>         0.0622
     76 H33         1.7614    0.6251   -3.0928 H         1 <0>         0.0321
     77 H34         1.8289   -0.7905   -2.0281 H         1 <0>         0.0204
     78 H35        -2.2612   -1.3523    0.9714 H         1 <0>         0.0749
     79 H36        -3.8738   -4.7901   -1.3784 H         1 <0>         0.0719
     80 H37        -5.5109   -0.2494    2.7849 H         1 <0>         0.0609
     81 H38        -0.3978    0.3245   -1.8868 H         1 <0>         0.1063
     82 H39        -0.1784    6.4130   -6.1648 H         1 <0>         0.4792
     83 H40        -0.3675    7.9927   -5.4705 H         1 <0>         0.4819
     84 H41        -0.2564    6.9316   -2.0034 H         1 <0>         0.4802
     85 H42        -0.4140    8.2980   -3.0692 H         1 <0>         0.4826
     86 H43         0.8216    0.7626    0.7549 H         1 <0>         0.3101
     87 H44        -4.0841   -3.7053    0.9020 H         1 <0>         0.3087
     88 H45         0.0398    4.4889   -4.7055 H         1 <0>         0.4846
     89 H46        -8.5946   -8.3827   -3.6602 H         1 <0>         0.4194
     90 H47         1.8515   -6.8926    0.0654 H         1 <0>         0.4036
     91 H48         2.9636    1.7601   -1.6856 H         1 <0>         0.4114
     92 H49        -4.9061   -3.5934   -3.4159 H         1 <0>         0.3944
@<TRIPOS>BOND
     1    1    3 ar
     2    1    5 ar
     3    2    4 ar
     4    2    5 ar
     5    3    6 ar
     6    4    6 ar
     7    5   21 1
     8    6   40 1
     9    7   15 1
    10    7   34 am
    11    7   37 2
    12    8   27 1
    13    8   31 am
    14    8   38 2
    15    9   28 1
    16    9   35 am
    17    9   39 2
    18   10   32 1
    19   10   33 1
    20   10   36 1
    21   11   12 1
    22   11   16 1
    23   12   18 1
    24   13   15 1
    25   13   16 1
    26   14   17 1
    27   14   18 1
    28   15   31 1
    29   16   17 1
    30   17   31 1
    31   18   41 1
    32   19   29 1
    33   20   29 1
    34   21   28 1
    35   22   23 1
    36   22   25 1
    37   23   30 1
    38   24   27 1
    39   24   29 1
    40   25   36 1
    41   26   30 1
    42   26   42 1
    43   27   35 1
    44   28   43 1
    45   30   34 1
    46    1   44 1
    47    2   45 1
    48    3   46 1
    49    4   47 1
    50   11   48 1
    51   11   49 1
    52   12   50 1
    53   12   51 1
    54   13   52 1
    55   13   53 1
    56   14   54 1
    57   14   55 1
    58   15   56 1
    59   16   57 1
    60   17   58 1
    61   18   59 1
    62   19   60 1
    63   19   61 1
    64   19   62 1
    65   20   63 1
    66   20   64 1
    67   20   65 1
    68   21   66 1
    69   21   67 1
    70   22   68 1
    71   22   69 1
    72   23   70 1
    73   23   71 1
    74   24   72 1
    75   24   73 1
    76   25   74 1
    77   25   75 1
    78   26   76 1
    79   26   77 1
    80   27   78 1
    81   28   79 1
    82   29   80 1
    83   30   81 1
    84   32   82 1
    85   32   83 1
    86   33   84 1
    87   33   85 1
    88   34   86 1
    89   35   87 1
    90   36   88 1
    91   40   89 1
    92   41   90 1
    93   42   91 1
    94   43   92 1
@<TRIPOS>MOLECULE
1a2c_ligand_211
   92    94     0     0     0
SMALL
USER_CHARGES

mmff94s_NoEstat = 119.49
@<TRIPOS>ATOM
      1 C1         -6.7567   -4.6738   -3.5933 C.ar      1 <0>        -0.0708
      2 C2         -7.3456   -4.9208   -1.2633 C.ar      1 <0>        -0.0872
      3 C3         -7.6642   -5.6785   -3.9292 C.ar      1 <0>        -0.2241
      4 C4         -8.2530   -5.9255   -1.5991 C.ar      1 <0>        -0.1600
      5 C5         -6.6096   -4.3084   -2.2649 C.ar      1 <0>        -0.1356
      6 C6         -8.4124   -6.3044   -2.9320 C.ar      1 <0>         0.1290
      7 C7         -0.0512   -1.0561    0.2993 C.2       1 <0>         0.6664
      8 C8         -1.8469   -3.0457    2.1630 C.2       1 <0>         0.6651
      9 C9         -3.4040   -2.7670   -0.8258 C.2       1 <0>         0.6454
     10 C10        -1.3680    6.0369   -2.4463 C.cat     1 <0>         0.6349
     11 C11         2.5186   -3.1911    0.6823 C.3       1 <0>        -0.0642
     12 C12         2.4580   -4.6414    0.2376 C.3       1 <0>        -0.0747
     13 C13         1.4874   -1.4827    2.2418 C.3       1 <0>        -0.0873
     14 C14         0.4946   -5.0934    1.7133 C.3       1 <0>        -0.1371
     15 C15         0.0412   -1.4176    1.7503 C.3       1 <0>         0.0360
     16 C16         1.8865   -2.9529    2.0632 C.3       1 <0>        -0.0720
     17 C17         0.5665   -3.7001    2.3454 C.3       1 <0>         0.1201
     18 C18         1.0248   -5.1525    0.2868 C.3       1 <0>         0.1453
     19 C19        -5.7275   -1.2982    0.9287 C.3       1 <0>        -0.0968
     20 C20        -4.2097    0.6462    1.3473 C.3       1 <0>        -0.0986
     21 C21        -5.6277   -3.2203   -1.9015 C.3       1 <0>        -0.0191
     22 C22        -1.0374    2.7415   -0.6235 C.3       1 <0>        -0.1009
     23 C23         0.2513    2.2726   -1.3090 C.3       1 <0>        -0.0942
     24 C24        -3.7699   -1.5150    2.5525 C.3       1 <0>        -0.0988
     25 C25        -1.1758    4.2607   -0.6924 C.3       1 <0>         0.1966
     26 C26         1.7383    0.3016   -2.0469 C.3       1 <0>         0.1128
     27 C27        -2.8325   -2.1090    1.5076 C.3       1 <0>         0.0786
     28 C28        -4.2317   -3.7794   -1.6077 C.3       1 <0>         0.0744
     29 C29        -4.8597   -0.5919    1.9712 C.3       1 <0>        -0.0678
     30 C30         0.4555    0.7445   -1.3388 C.3       1 <0>         0.1065
     31 N1         -0.4979   -2.7598    1.9615 N.am      1 <0>        -0.4315
     32 N2         -1.4040    6.4058   -3.7870 N.pl3     1 <0>        -0.8671
     33 N3         -1.4802    7.0203   -1.4694 N.pl3     1 <0>        -0.8581
     34 N4          0.4455    0.1980   -0.0008 N.am      1 <0>        -0.5687
     35 N5         -3.5026   -2.9419    0.5527 N.am      1 <0>        -0.5746
     36 N6         -1.2206    4.6907   -2.0698 N.pl3     1 <0>        -0.7533
     37 O1         -0.5362   -1.8555   -0.4928 O.2       1 <0>        -0.5843
     38 O2         -2.2659   -3.9924    2.8322 O.2       1 <0>        -0.6812
     39 O3         -2.7407   -1.8909   -1.3761 O.2       1 <0>        -0.5788
     40 O4         -9.2991   -7.2836   -3.2599 O.3       1 <0>        -0.4938
     41 O5          0.9879   -6.5072   -0.1510 O.3       1 <0>        -0.6030
     42 O6          1.7296    0.7591   -3.3929 O.3       1 <0>        -0.5860
     43 O7         -3.5703   -4.0395   -2.8375 O.3       1 <0>        -0.6021
     44 H1         -6.1783   -4.1922   -4.3770 H         1 <0>         0.1412
     45 H2         -7.2282   -4.6319   -0.2220 H         1 <0>         0.1451
     46 H3         -7.7839   -5.9690   -4.9692 H         1 <0>         0.1336
     47 H4         -8.8337   -6.4088   -0.8178 H         1 <0>         0.1567
     48 H5          3.5627   -2.8549    0.7003 H         1 <0>         0.0649
     49 H6          2.0259   -2.5829   -0.0837 H         1 <0>         0.0476
     50 H7          2.8567   -4.7427   -0.7790 H         1 <0>         0.0641
     51 H8          3.1032   -5.2618    0.8729 H         1 <0>         0.0484
     52 H9          2.1569   -0.7868    1.7257 H         1 <0>         0.0596
     53 H10         1.5124   -1.2395    3.3116 H         1 <0>         0.0757
     54 H11         1.0921   -5.7802    2.3299 H         1 <0>         0.0782
     55 H12        -0.5175   -5.5090    1.7393 H         1 <0>         0.0812
     56 H13        -0.5378   -0.6778    2.3126 H         1 <0>         0.0731
     57 H14         2.6304   -3.2407    2.8169 H         1 <0>         0.0511
     58 H15         0.4523   -3.8218    3.4319 H         1 <0>         0.0753
     59 H16         0.3841   -4.5700   -0.3844 H         1 <0>         0.0427
     60 H17        -6.4424   -0.5993    0.4810 H         1 <0>         0.0450
     61 H18        -6.3080   -2.1101    1.3767 H         1 <0>         0.0406
     62 H19        -5.1167   -1.7184    0.1225 H         1 <0>         0.0274
     63 H20        -3.5507    0.3732    0.5159 H         1 <0>         0.0476
     64 H21        -4.9709    1.3343    0.9644 H         1 <0>         0.0170
     65 H22        -3.6139    1.1889    2.0888 H         1 <0>         0.0477
     66 H23        -6.0051   -2.6719   -1.0280 H         1 <0>         0.0814
     67 H24        -5.5997   -2.4925   -2.7222 H         1 <0>         0.0685
     68 H25        -1.9092    2.2808   -1.1025 H         1 <0>         0.1016
     69 H26        -1.0467    2.4234    0.4259 H         1 <0>         0.0660
     70 H27         1.1110    2.7323   -0.8028 H         1 <0>         0.0512
     71 H28         0.2685    2.6560   -2.3373 H         1 <0>         0.0454
     72 H29        -3.1790   -0.9587    3.2928 H         1 <0>         0.0575
     73 H30        -4.2588   -2.3274    3.1083 H         1 <0>         0.0743
     74 H31        -0.3281    4.7425   -0.1937 H         1 <0>         0.0662
     75 H32        -2.0906    4.5862   -0.1866 H         1 <0>         0.0622
     76 H33         1.8500   -0.7877   -2.0488 H         1 <0>         0.0321
     77 H34         2.6170    0.7313   -1.5524 H         1 <0>         0.0204
     78 H35        -2.2612   -1.3523    0.9714 H         1 <0>         0.0749
     79 H36        -4.2834   -4.7163   -1.0404 H         1 <0>         0.0719
     80 H37        -5.5109   -0.2494    2.7849 H         1 <0>         0.0609
     81 H38        -0.3978    0.3245   -1.8868 H         1 <0>         0.1063
     82 H39        -1.3238    5.7221   -4.5349 H         1 <0>         0.4792
     83 H40        -1.5101    7.3807   -4.0580 H         1 <0>         0.4819
     84 H41        -1.4576    6.7856   -0.4800 H         1 <0>         0.4802
     85 H42        -1.5888    8.0004   -1.7189 H         1 <0>         0.4826
     86 H43         0.8216    0.7626    0.7549 H         1 <0>         0.3101
     87 H44        -4.0841   -3.7053    0.9020 H         1 <0>         0.3087
     88 H45        -1.1423    4.0061   -2.8316 H         1 <0>         0.4846
     89 H46        -8.9810   -7.7812   -4.0301 H         1 <0>         0.4194
     90 H47         1.8515   -6.8926    0.0654 H         1 <0>         0.4036
     91 H48         1.1820    0.1356   -3.8968 H         1 <0>         0.4114
     92 H49        -4.2525   -4.0407   -3.5287 H         1 <0>         0.3944
@<TRIPOS>BOND
     1    1    3 ar
     2    1    5 ar
     3    2    4 ar
     4    2    5 ar
     5    3    6 ar
     6    4    6 ar
     7    5   21 1
     8    6   40 1
     9    7   15 1
    10    7   34 am
    11    7   37 2
    12    8   27 1
    13    8   31 am
    14    8   38 2
    15    9   28 1
    16    9   35 am
    17    9   39 2
    18   10   32 1
    19   10   33 1
    20   10   36 1
    21   11   12 1
    22   11   16 1
    23   12   18 1
    24   13   15 1
    25   13   16 1
    26   14   17 1
    27   14   18 1
    28   15   31 1
    29   16   17 1
    30   17   31 1
    31   18   41 1
    32   19   29 1
    33   20   29 1
    34   21   28 1
    35   22   23 1
    36   22   25 1
    37   23   30 1
    38   24   27 1
    39   24   29 1
    40   25   36 1
    41   26   30 1
    42   26   42 1
    43   27   35 1
    44   28   43 1
    45   30   34 1
    46    1   44 1
    47    2   45 1
    48    3   46 1
    49    4   47 1
    50   11   48 1
    51   11   49 1
    52   12   50 1
    53   12   51 1
    54   13   52 1
    55   13   53 1
    56   14   54 1
    57   14   55 1
    58   15   56 1
    59   16   57 1
    60   17   58 1
    61   18   59 1
    62   19   60 1
    63   19   61 1
    64   19   62 1
    65   20   63 1
    66   20   64 1
    67   20   65 1
    68   21   66 1
    69   21   67 1
    70   22   68 1
    71   22   69 1
    72   23   70 1
    73   23   71 1
    74   24   72 1
    75   24   73 1
    76   25   74 1
    77   25   75 1
    78   26   76 1
    79   26   77 1
    80   27   78 1
    81   28   79 1
    82   29   80 1
    83   30   81 1
    84   32   82 1
    85   32   83 1
    86   33   84 1
    87   33   85 1
    88   34   86 1
    89   35   87 1
    90   36   88 1
    91   40   89 1
    92   41   90 1
    93   42   91 1
    94   43   92 1
@<TRIPOS>MOLECULE
1a2c_ligand_212
   92    94     0     0     0
SMALL
USER_CHARGES

mmff94s_NoEstat = 119.59
@<TRIPOS>ATOM
      1 C1         -8.1430   -5.2700   -1.6236 C.ar      1 <0>        -0.0708
      2 C2         -8.4504   -3.7980    0.2673 C.ar      1 <0>        -0.0872
      3 C3         -9.4290   -5.7773   -1.4378 C.ar      1 <0>        -0.2241
      4 C4         -9.7364   -4.3052    0.4531 C.ar      1 <0>        -0.1600
      5 C5         -7.6710   -4.2872   -0.7686 C.ar      1 <0>        -0.1356
      6 C6        -10.2258   -5.2949   -0.3994 C.ar      1 <0>         0.1290
      7 C7         -0.0512   -1.0561    0.2993 C.2       1 <0>         0.6664
      8 C8         -1.8469   -3.0457    2.1630 C.2       1 <0>         0.6651
      9 C9         -3.9484   -3.7154   -0.0348 C.2       1 <0>         0.6454
     10 C10        -3.3294    2.0808   -3.5565 C.cat     1 <0>         0.6349
     11 C11         2.5186   -3.1911    0.6823 C.3       1 <0>        -0.0642
     12 C12         2.4580   -4.6414    0.2376 C.3       1 <0>        -0.0747
     13 C13         1.4874   -1.4827    2.2418 C.3       1 <0>        -0.0873
     14 C14         0.4946   -5.0934    1.7133 C.3       1 <0>        -0.1371
     15 C15         0.0412   -1.4176    1.7503 C.3       1 <0>         0.0360
     16 C16         1.8865   -2.9529    2.0632 C.3       1 <0>        -0.0720
     17 C17         0.5665   -3.7001    2.3454 C.3       1 <0>         0.1201
     18 C18         1.0248   -5.1525    0.2868 C.3       1 <0>         0.1453
     19 C19        -5.5746   -0.7475    1.4860 C.3       1 <0>        -0.0968
     20 C20        -3.7112    0.7464    0.7408 C.3       1 <0>        -0.0986
     21 C21        -6.2790   -3.7375   -0.9703 C.3       1 <0>        -0.0191
     22 C22        -1.0374    2.7415   -0.6235 C.3       1 <0>        -0.1009
     23 C23         0.2513    2.2726   -1.3090 C.3       1 <0>        -0.0942
     24 C24        -3.2372   -1.0062    2.4788 C.3       1 <0>        -0.0988
     25 C25        -2.2684    2.1304   -1.2894 C.3       1 <0>         0.1966
     26 C26         1.7383    0.3016   -2.0469 C.3       1 <0>         0.1128
     27 C27        -2.8325   -2.1090    1.5076 C.3       1 <0>         0.0786
     28 C28        -5.2285   -4.5282   -0.1835 C.3       1 <0>         0.0744
     29 C29        -4.2955   -0.0321    1.9228 C.3       1 <0>        -0.0678
     30 C30         0.4555    0.7445   -1.3388 C.3       1 <0>         0.1065
     31 N1         -0.4979   -2.7598    1.9615 N.am      1 <0>        -0.4315
     32 N2         -3.3390    2.4766   -4.8899 N.pl3     1 <0>        -0.8671
     33 N3         -4.3382    1.2447   -3.0902 N.pl3     1 <0>        -0.8581
     34 N4          0.4455    0.1980   -0.0008 N.am      1 <0>        -0.5687
     35 N5         -3.9193   -2.9688    1.1410 N.am      1 <0>        -0.5746
     36 N6         -2.3186    2.5130   -2.6805 N.pl3     1 <0>        -0.7533
     37 O1         -0.5362   -1.8555   -0.4928 O.2       1 <0>        -0.5843
     38 O2         -2.2659   -3.9924    2.8322 O.2       1 <0>        -0.6812
     39 O3         -3.0587   -3.7239   -0.8825 O.2       1 <0>        -0.5788
     40 O4        -11.4813   -5.7887   -0.2191 O.3       1 <0>        -0.4938
     41 O5          0.9879   -6.5072   -0.1510 O.3       1 <0>        -0.6030
     42 O6          2.8703    0.8436   -1.3793 O.3       1 <0>        -0.5860
     43 O7         -4.9192   -5.7187   -0.8939 O.3       1 <0>        -0.6021
     44 H1         -7.5297   -5.6521   -2.4352 H         1 <0>         0.1412
     45 H2         -8.0776   -3.0267    0.9363 H         1 <0>         0.1451
     46 H3         -9.8045   -6.5479   -2.1053 H         1 <0>         0.1336
     47 H4        -10.3528   -3.9247    1.2634 H         1 <0>         0.1567
     48 H5          3.5627   -2.8549    0.7003 H         1 <0>         0.0649
     49 H6          2.0259   -2.5829   -0.0837 H         1 <0>         0.0476
     50 H7          2.8567   -4.7427   -0.7790 H         1 <0>         0.0641
     51 H8          3.1032   -5.2618    0.8729 H         1 <0>         0.0484
     52 H9          2.1569   -0.7868    1.7257 H         1 <0>         0.0596
     53 H10         1.5124   -1.2395    3.3116 H         1 <0>         0.0757
     54 H11         1.0921   -5.7802    2.3299 H         1 <0>         0.0782
     55 H12        -0.5175   -5.5090    1.7393 H         1 <0>         0.0812
     56 H13        -0.5378   -0.6778    2.3126 H         1 <0>         0.0731
     57 H14         2.6304   -3.2407    2.8169 H         1 <0>         0.0511
     58 H15         0.4523   -3.8218    3.4319 H         1 <0>         0.0753
     59 H16         0.3841   -4.5700   -0.3844 H         1 <0>         0.0427
     60 H17        -6.2768   -0.0422    1.0282 H         1 <0>         0.0450
     61 H18        -6.0867   -1.2049    2.3377 H         1 <0>         0.0406
     62 H19        -5.3599   -1.5330    0.7535 H         1 <0>         0.0274
     63 H20        -3.4369    0.0757   -0.0807 H         1 <0>         0.0476
     64 H21        -4.4352    1.4732    0.3573 H         1 <0>         0.0170
     65 H22        -2.8146    1.2981    1.0427 H         1 <0>         0.0477
     66 H23        -6.2612   -2.6822   -0.6666 H         1 <0>         0.0814
     67 H24        -6.0581   -3.7432   -2.0450 H         1 <0>         0.0685
     68 H25        -1.0263    2.4588    0.4356 H         1 <0>         0.1016
     69 H26        -1.1105    3.8350   -0.6596 H         1 <0>         0.0660
     70 H27         1.1110    2.7323   -0.8028 H         1 <0>         0.0512
     71 H28         0.2685    2.6560   -2.3373 H         1 <0>         0.0454
     72 H29        -2.3434   -0.4411    2.7760 H         1 <0>         0.0575
     73 H30        -3.6273   -1.4576    3.4018 H         1 <0>         0.0743
     74 H31        -3.1804    2.4738   -0.7898 H         1 <0>         0.0662
     75 H32        -2.2399    1.0381   -1.2201 H         1 <0>         0.0622
     76 H33         1.7614    0.6251   -3.0928 H         1 <0>         0.0321
     77 H34         1.8289   -0.7905   -2.0281 H         1 <0>         0.0204
     78 H35        -2.3687   -1.7253    0.5998 H         1 <0>         0.0749
     79 H36        -5.5950   -4.8071    0.8115 H         1 <0>         0.0719
     80 H37        -4.5575    0.6951    2.7011 H         1 <0>         0.0609
     81 H38        -0.3978    0.3245   -1.8868 H         1 <0>         0.1063
     82 H39        -2.6237    3.0881   -5.2742 H         1 <0>         0.4792
     83 H40        -4.0716    2.1635   -5.5226 H         1 <0>         0.4819
     84 H41        -4.3615    0.9362   -2.1213 H         1 <0>         0.4802
     85 H42        -5.0788    0.9188   -3.7066 H         1 <0>         0.4826
     86 H43         0.8216    0.7626    0.7549 H         1 <0>         0.3101
     87 H44        -4.7157   -3.0377    1.7764 H         1 <0>         0.3087
     88 H45        -1.5986    3.1289   -3.0773 H         1 <0>         0.4846
     89 H46       -11.5161   -6.7226   -0.4809 H         1 <0>         0.4194
     90 H47         1.8515   -6.8926    0.0654 H         1 <0>         0.4036
     91 H48         2.9636    1.7601   -1.6856 H         1 <0>         0.4114
     92 H49        -5.6257   -5.8474   -1.5477 H         1 <0>         0.3944
@<TRIPOS>BOND
     1    1    3 ar
     2    1    5 ar
     3    2    4 ar
     4    2    5 ar
     5    3    6 ar
     6    4    6 ar
     7    5   21 1
     8    6   40 1
     9    7   15 1
    10    7   34 am
    11    7   37 2
    12    8   27 1
    13    8   31 am
    14    8   38 2
    15    9   28 1
    16    9   35 am
    17    9   39 2
    18   10   32 1
    19   10   33 1
    20   10   36 1
    21   11   12 1
    22   11   16 1
    23   12   18 1
    24   13   15 1
    25   13   16 1
    26   14   17 1
    27   14   18 1
    28   15   31 1
    29   16   17 1
    30   17   31 1
    31   18   41 1
    32   19   29 1
    33   20   29 1
    34   21   28 1
    35   22   23 1
    36   22   25 1
    37   23   30 1
    38   24   27 1
    39   24   29 1
    40   25   36 1
    41   26   30 1
    42   26   42 1
    43   27   35 1
    44   28   43 1
    45   30   34 1
    46    1   44 1
    47    2   45 1
    48    3   46 1
    49    4   47 1
    50   11   48 1
    51   11   49 1
    52   12   50 1
    53   12   51 1
    54   13   52 1
    55   13   53 1
    56   14   54 1
    57   14   55 1
    58   15   56 1
    59   16   57 1
    60   17   58 1
    61   18   59 1
    62   19   60 1
    63   19   61 1
    64   19   62 1
    65   20   63 1
    66   20   64 1
    67   20   65 1
    68   21   66 1
    69   21   67 1
    70   22   68 1
    71   22   69 1
    72   23   70 1
    73   23   71 1
    74   24   72 1
    75   24   73 1
    76   25   74 1
    77   25   75 1
    78   26   76 1
    79   26   77 1
    80   27   78 1
    81   28   79 1
    82   29   80 1
    83   30   81 1
    84   32   82 1
    85   32   83 1
    86   33   84 1
    87   33   85 1
    88   34   86 1
    89   35   87 1
    90   36   88 1
    91   40   89 1
    92   41   90 1
    93   42   91 1
    94   43   92 1
@<TRIPOS>MOLECULE
1a2c_ligand_213
   92    94     0     0     0
SMALL
USER_CHARGES

mmff94s_NoEstat = 119.61
@<TRIPOS>ATOM
      1 C1         -8.6272   -2.8492   -1.4308 C.ar      1 <0>        -0.0708
      2 C2         -8.6280   -2.4747    0.9560 C.ar      1 <0>        -0.0872
      3 C3         -9.9370   -3.3232   -1.3568 C.ar      1 <0>        -0.2241
      4 C4         -9.9377   -2.9488    1.0300 C.ar      1 <0>        -0.1600
      5 C5         -7.9904   -2.4312   -0.2734 C.ar      1 <0>        -0.1356
      6 C6        -10.5923   -3.3731   -0.1264 C.ar      1 <0>         0.1290
      7 C7         -0.0512   -1.0561    0.2993 C.2       1 <0>         0.6664
      8 C8         -1.8469   -3.0457    2.1630 C.2       1 <0>         0.6651
      9 C9         -4.1811   -2.4610    0.1870 C.2       1 <0>         0.6454
     10 C10         0.5048   -1.1562   -4.3024 C.cat     1 <0>         0.6349
     11 C11         2.5186   -3.1911    0.6823 C.3       1 <0>        -0.0642
     12 C12         2.4580   -4.6414    0.2376 C.3       1 <0>        -0.0747
     13 C13         1.4874   -1.4827    2.2418 C.3       1 <0>        -0.0873
     14 C14         0.4946   -5.0934    1.7133 C.3       1 <0>        -0.1371
     15 C15         0.0412   -1.4176    1.7503 C.3       1 <0>         0.0360
     16 C16         1.8865   -2.9529    2.0632 C.3       1 <0>        -0.0720
     17 C17         0.5665   -3.7001    2.3454 C.3       1 <0>         0.1201
     18 C18         1.0248   -5.1525    0.2868 C.3       1 <0>         0.1453
     19 C19        -5.3726   -0.5418    3.1302 C.3       1 <0>        -0.0968
     20 C20        -3.4397    1.0389    2.9738 C.3       1 <0>        -0.0986
     21 C21        -6.5727   -1.9173   -0.3536 C.3       1 <0>        -0.0191
     22 C22        -0.9951    2.0137   -3.0747 C.3       1 <0>        -0.1009
     23 C23        -0.8794    1.4488   -1.6540 C.3       1 <0>        -0.0942
     24 C24        -2.9973   -1.3585    3.5851 C.3       1 <0>        -0.0988
     25 C25        -0.9093    0.9015   -4.1176 C.3       1 <0>         0.1966
     26 C26         1.6856    1.6412   -1.5001 C.3       1 <0>         0.1128
     27 C27        -2.7865   -1.8644    2.1628 C.3       1 <0>         0.0786
     28 C28        -5.5432   -3.0384   -0.1771 C.3       1 <0>         0.0744
     29 C29        -3.9969   -0.1898    3.6979 C.3       1 <0>        -0.0678
     30 C30         0.4555    0.7445   -1.3388 C.3       1 <0>         0.1065
     31 N1         -0.4979   -2.7598    1.9615 N.am      1 <0>        -0.4315
     32 N2          1.7393   -1.7840   -4.1731 N.pl3     1 <0>        -0.8671
     33 N3         -0.5888   -1.8950   -4.7409 N.pl3     1 <0>        -0.8581
     34 N4          0.4455    0.1980   -0.0008 N.am      1 <0>        -0.5687
     35 N5         -3.9799   -2.3853    1.5634 N.am      1 <0>        -0.5746
     36 N6          0.3506    0.2071   -3.9968 N.pl3     1 <0>        -0.7533
     37 O1         -0.5362   -1.8555   -0.4928 O.2       1 <0>        -0.5843
     38 O2         -2.2998   -4.1783    2.3409 O.2       1 <0>        -0.6812
     39 O3         -3.3708   -2.0954   -0.6616 O.2       1 <0>        -0.5788
     40 O4        -11.8709   -3.8342   -0.0545 O.3       1 <0>        -0.4938
     41 O5          0.9879   -6.5072   -0.1510 O.3       1 <0>        -0.6030
     42 O6          2.8639    0.9021   -1.2063 O.3       1 <0>        -0.5860
     43 O7         -5.4138   -3.7436   -1.4033 O.3       1 <0>        -0.6021
     44 H1         -8.1249   -2.8142   -2.3937 H         1 <0>         0.1412
     45 H2         -8.1259   -2.1460    1.8623 H         1 <0>         0.1451
     46 H3        -10.4414   -3.6521   -2.2611 H         1 <0>         0.1336
     47 H4        -10.4433   -2.9843    1.9914 H         1 <0>         0.1567
     48 H5          3.5627   -2.8549    0.7003 H         1 <0>         0.0649
     49 H6          2.0259   -2.5829   -0.0837 H         1 <0>         0.0476
     50 H7          2.8567   -4.7427   -0.7790 H         1 <0>         0.0641
     51 H8          3.1032   -5.2618    0.8729 H         1 <0>         0.0484
     52 H9          2.1569   -0.7868    1.7257 H         1 <0>         0.0596
     53 H10         1.5124   -1.2395    3.3116 H         1 <0>         0.0757
     54 H11         1.0921   -5.7802    2.3299 H         1 <0>         0.0782
     55 H12        -0.5175   -5.5090    1.7393 H         1 <0>         0.0812
     56 H13        -0.5378   -0.6778    2.3126 H         1 <0>         0.0731
     57 H14         2.6304   -3.2407    2.8169 H         1 <0>         0.0511
     58 H15         0.4523   -3.8218    3.4319 H         1 <0>         0.0753
     59 H16         0.3841   -4.5700   -0.3844 H         1 <0>         0.0427
     60 H17        -6.0375    0.3284    3.1563 H         1 <0>         0.0450
     61 H18        -5.8542   -1.3328    3.7128 H         1 <0>         0.0406
     62 H19        -5.2988   -0.8789    2.0908 H         1 <0>         0.0274
     63 H20        -3.3028    0.8425    1.9049 H         1 <0>         0.0476
     64 H21        -4.1178    1.8926    3.0773 H         1 <0>         0.0170
     65 H22        -2.4708    1.3315    3.3922 H         1 <0>         0.0477
     66 H23        -6.4251   -1.1465    0.4146 H         1 <0>         0.0814
     67 H24        -6.4443   -1.4079   -1.3169 H         1 <0>         0.0685
     68 H25        -1.9473    2.5434   -3.1941 H         1 <0>         0.1016
     69 H26        -0.1993    2.7456   -3.2583 H         1 <0>         0.0660
     70 H27        -1.7000    0.7382   -1.4859 H         1 <0>         0.0512
     71 H28        -1.0340    2.2618   -0.9330 H         1 <0>         0.0454
     72 H29        -2.0302   -1.0518    4.0061 H         1 <0>         0.0575
     73 H30        -3.3514   -2.1846    4.2177 H         1 <0>         0.0743
     74 H31        -0.9933    1.3193   -5.1264 H         1 <0>         0.0662
     75 H32        -1.7263    0.1851   -3.9830 H         1 <0>         0.0622
     76 H33         1.6463    2.5133   -0.8391 H         1 <0>         0.0321
     77 H34         1.7645    2.0016   -2.5321 H         1 <0>         0.0204
     78 H35        -2.3647   -1.1082    1.5019 H         1 <0>         0.0749
     79 H36        -5.8508   -3.7504    0.5980 H         1 <0>         0.0719
     80 H37        -4.1195    0.0762    4.7551 H         1 <0>         0.0609
     81 H38         0.5463   -0.0881   -2.0483 H         1 <0>         0.1063
     82 H39         2.5663   -1.2838   -3.8582 H         1 <0>         0.4792
     83 H40         1.8495   -2.7707   -4.3952 H         1 <0>         0.4819
     84 H41        -1.5056   -1.4676   -4.8467 H         1 <0>         0.4802
     85 H42        -0.5005   -2.8830   -4.9665 H         1 <0>         0.4826
     86 H43         0.8216    0.7626    0.7549 H         1 <0>         0.3101
     87 H44        -4.7231   -2.7191    2.1790 H         1 <0>         0.3087
     88 H45         1.1906    0.7047   -3.6774 H         1 <0>         0.4846
     89 H46       -12.0198   -4.5188   -0.7260 H         1 <0>         0.4194
     90 H47         1.8515   -6.8926    0.0654 H         1 <0>         0.4036
     91 H48         2.9483    0.8828   -0.2393 H         1 <0>         0.4114
     92 H49        -6.1819   -3.5045   -1.9474 H         1 <0>         0.3944
@<TRIPOS>BOND
     1    1    3 ar
     2    1    5 ar
     3    2    4 ar
     4    2    5 ar
     5    3    6 ar
     6    4    6 ar
     7    5   21 1
     8    6   40 1
     9    7   15 1
    10    7   34 am
    11    7   37 2
    12    8   27 1
    13    8   31 am
    14    8   38 2
    15    9   28 1
    16    9   35 am
    17    9   39 2
    18   10   32 1
    19   10   33 1
    20   10   36 1
    21   11   12 1
    22   11   16 1
    23   12   18 1
    24   13   15 1
    25   13   16 1
    26   14   17 1
    27   14   18 1
    28   15   31 1
    29   16   17 1
    30   17   31 1
    31   18   41 1
    32   19   29 1
    33   20   29 1
    34   21   28 1
    35   22   23 1
    36   22   25 1
    37   23   30 1
    38   24   27 1
    39   24   29 1
    40   25   36 1
    41   26   30 1
    42   26   42 1
    43   27   35 1
    44   28   43 1
    45   30   34 1
    46    1   44 1
    47    2   45 1
    48    3   46 1
    49    4   47 1
    50   11   48 1
    51   11   49 1
    52   12   50 1
    53   12   51 1
    54   13   52 1
    55   13   53 1
    56   14   54 1
    57   14   55 1
    58   15   56 1
    59   16   57 1
    60   17   58 1
    61   18   59 1
    62   19   60 1
    63   19   61 1
    64   19   62 1
    65   20   63 1
    66   20   64 1
    67   20   65 1
    68   21   66 1
    69   21   67 1
    70   22   68 1
    71   22   69 1
    72   23   70 1
    73   23   71 1
    74   24   72 1
    75   24   73 1
    76   25   74 1
    77   25   75 1
    78   26   76 1
    79   26   77 1
    80   27   78 1
    81   28   79 1
    82   29   80 1
    83   30   81 1
    84   32   82 1
    85   32   83 1
    86   33   84 1
    87   33   85 1
    88   34   86 1
    89   35   87 1
    90   36   88 1
    91   40   89 1
    92   41   90 1
    93   42   91 1
    94   43   92 1
@<TRIPOS>MOLECULE
1a2c_ligand_214
   92    94     0     0     0
SMALL
USER_CHARGES

mmff94s_NoEstat = 119.72
@<TRIPOS>ATOM
      1 C1         -7.0660   -4.9282   -2.9366 C.ar      1 <0>        -0.0708
      2 C2         -6.6866   -5.8628   -0.7412 C.ar      1 <0>        -0.0872
      3 C3         -7.8027   -6.0586   -3.2904 C.ar      1 <0>        -0.2241
      4 C4         -7.4233   -6.9931   -1.0950 C.ar      1 <0>        -0.1600
      5 C5         -6.5178   -4.8455   -1.6667 C.ar      1 <0>        -0.1356
      6 C6         -7.9813   -7.0911   -2.3696 C.ar      1 <0>         0.1290
      7 C7         -0.0512   -1.0561    0.2993 C.2       1 <0>         0.6664
      8 C8         -1.8469   -3.0457    2.1630 C.2       1 <0>         0.6651
      9 C9         -3.4040   -2.7670   -0.8258 C.2       1 <0>         0.6454
     10 C10        -0.9406    0.6782   -6.6110 C.cat     1 <0>         0.6349
     11 C11         2.5186   -3.1911    0.6823 C.3       1 <0>        -0.0642
     12 C12         2.4580   -4.6414    0.2376 C.3       1 <0>        -0.0747
     13 C13         1.4874   -1.4827    2.2418 C.3       1 <0>        -0.0873
     14 C14         0.4946   -5.0934    1.7133 C.3       1 <0>        -0.1371
     15 C15         0.0412   -1.4176    1.7503 C.3       1 <0>         0.0360
     16 C16         1.8865   -2.9529    2.0632 C.3       1 <0>        -0.0720
     17 C17         0.5665   -3.7001    2.3454 C.3       1 <0>         0.1201
     18 C18         1.0248   -5.1525    0.2868 C.3       1 <0>         0.1453
     19 C19        -5.7275   -1.2982    0.9287 C.3       1 <0>        -0.0968
     20 C20        -4.2097    0.6462    1.3473 C.3       1 <0>        -0.0986
     21 C21        -5.7209   -3.6214   -1.2834 C.3       1 <0>        -0.0191
     22 C22        -0.9951    2.0137   -3.0747 C.3       1 <0>        -0.1009
     23 C23        -0.8794    1.4488   -1.6540 C.3       1 <0>        -0.0942
     24 C24        -3.7699   -1.5150    2.5525 C.3       1 <0>        -0.0988
     25 C25        -0.9093    0.9015   -4.1176 C.3       1 <0>         0.1966
     26 C26         1.6856    1.6412   -1.5001 C.3       1 <0>         0.1128
     27 C27        -2.8325   -2.1090    1.5076 C.3       1 <0>         0.0786
     28 C28        -4.2317   -3.7794   -1.6077 C.3       1 <0>         0.0744
     29 C29        -4.8597   -0.5919    1.9712 C.3       1 <0>        -0.0678
     30 C30         0.4555    0.7445   -1.3388 C.3       1 <0>         0.1065
     31 N1         -0.4979   -2.7598    1.9615 N.am      1 <0>        -0.4315
     32 N2         -1.0455    1.2596   -7.8703 N.pl3     1 <0>        -0.8671
     33 N3         -0.7637   -0.6976   -6.5120 N.pl3     1 <0>        -0.8581
     34 N4          0.4455    0.1980   -0.0008 N.am      1 <0>        -0.5687
     35 N5         -3.5026   -2.9419    0.5527 N.am      1 <0>        -0.5746
     36 N6         -1.0107    1.4600   -5.4449 N.pl3     1 <0>        -0.7533
     37 O1         -0.5362   -1.8555   -0.4928 O.2       1 <0>        -0.5843
     38 O2         -2.2659   -3.9924    2.8322 O.2       1 <0>        -0.6812
     39 O3         -2.7407   -1.8909   -1.3761 O.2       1 <0>        -0.5788
     40 O4         -8.7016   -8.1934   -2.7144 O.3       1 <0>        -0.4938
     41 O5          0.9879   -6.5072   -0.1510 O.3       1 <0>        -0.6030
     42 O6          1.5971    2.7470   -0.6113 O.3       1 <0>        -0.5860
     43 O7         -4.0332   -3.5405   -2.9937 O.3       1 <0>        -0.6021
     44 H1         -6.9320   -4.1292   -3.6606 H         1 <0>         0.1412
     45 H2         -6.2556   -5.7950    0.2544 H         1 <0>         0.1451
     46 H3         -8.2349   -6.1289   -4.2847 H         1 <0>         0.1336
     47 H4         -7.5597   -7.7939   -0.3729 H         1 <0>         0.1567
     48 H5          3.5627   -2.8549    0.7003 H         1 <0>         0.0649
     49 H6          2.0259   -2.5829   -0.0837 H         1 <0>         0.0476
     50 H7          2.8567   -4.7427   -0.7790 H         1 <0>         0.0641
     51 H8          3.1032   -5.2618    0.8729 H         1 <0>         0.0484
     52 H9          2.1569   -0.7868    1.7257 H         1 <0>         0.0596
     53 H10         1.5124   -1.2395    3.3116 H         1 <0>         0.0757
     54 H11         1.0921   -5.7802    2.3299 H         1 <0>         0.0782
     55 H12        -0.5175   -5.5090    1.7393 H         1 <0>         0.0812
     56 H13        -0.5378   -0.6778    2.3126 H         1 <0>         0.0731
     57 H14         2.6304   -3.2407    2.8169 H         1 <0>         0.0511
     58 H15         0.4523   -3.8218    3.4319 H         1 <0>         0.0753
     59 H16         0.3841   -4.5700   -0.3844 H         1 <0>         0.0427
     60 H17        -6.4424   -0.5993    0.4810 H         1 <0>         0.0450
     61 H18        -6.3080   -2.1101    1.3767 H         1 <0>         0.0406
     62 H19        -5.1167   -1.7184    0.1225 H         1 <0>         0.0274
     63 H20        -3.5507    0.3732    0.5159 H         1 <0>         0.0476
     64 H21        -4.9709    1.3343    0.9644 H         1 <0>         0.0170
     65 H22        -3.6139    1.1889    2.0888 H         1 <0>         0.0477
     66 H23        -5.8540   -3.4265   -0.2108 H         1 <0>         0.0814
     67 H24        -6.1504   -2.7541   -1.8005 H         1 <0>         0.0685
     68 H25        -1.9473    2.5434   -3.1941 H         1 <0>         0.1016
     69 H26        -0.1993    2.7456   -3.2583 H         1 <0>         0.0660
     70 H27        -1.7000    0.7382   -1.4859 H         1 <0>         0.0512
     71 H28        -1.0340    2.2618   -0.9330 H         1 <0>         0.0454
     72 H29        -3.1790   -0.9587    3.2928 H         1 <0>         0.0575
     73 H30        -4.2588   -2.3274    3.1083 H         1 <0>         0.0743
     74 H31        -1.7187    0.1787   -3.9697 H         1 <0>         0.0662
     75 H32         0.0401    0.3636   -4.0280 H         1 <0>         0.0622
     76 H33         1.7842    2.0214   -2.5223 H         1 <0>         0.0321
     77 H34         2.5988    1.0866   -1.2555 H         1 <0>         0.0204
     78 H35        -2.2612   -1.3523    0.9714 H         1 <0>         0.0749
     79 H36        -3.8738   -4.7901   -1.3784 H         1 <0>         0.0719
     80 H37        -5.5109   -0.2494    2.7849 H         1 <0>         0.0609
     81 H38         0.5463   -0.0881   -2.0483 H         1 <0>         0.1063
     82 H39        -1.1773    2.2602   -7.9911 H         1 <0>         0.4792
     83 H40        -0.9951    0.6924   -8.7134 H         1 <0>         0.4819
     84 H41        -0.6834   -1.1551   -5.6072 H         1 <0>         0.4802
     85 H42        -0.7090   -1.2825   -7.3424 H         1 <0>         0.4826
     86 H43         0.8216    0.7626    0.7549 H         1 <0>         0.3101
     87 H44        -4.0841   -3.7053    0.9020 H         1 <0>         0.3087
     88 H45        -1.1420    2.4704   -5.5758 H         1 <0>         0.4846
     89 H46        -8.5946   -8.3827   -3.6602 H         1 <0>         0.4194
     90 H47         1.8515   -6.8926    0.0654 H         1 <0>         0.4036
     91 H48         1.0115    3.3975   -1.0313 H         1 <0>         0.4114
     92 H49        -4.9061   -3.5934   -3.4159 H         1 <0>         0.3944
@<TRIPOS>BOND
     1    1    3 ar
     2    1    5 ar
     3    2    4 ar
     4    2    5 ar
     5    3    6 ar
     6    4    6 ar
     7    5   21 1
     8    6   40 1
     9    7   15 1
    10    7   34 am
    11    7   37 2
    12    8   27 1
    13    8   31 am
    14    8   38 2
    15    9   28 1
    16    9   35 am
    17    9   39 2
    18   10   32 1
    19   10   33 1
    20   10   36 1
    21   11   12 1
    22   11   16 1
    23   12   18 1
    24   13   15 1
    25   13   16 1
    26   14   17 1
    27   14   18 1
    28   15   31 1
    29   16   17 1
    30   17   31 1
    31   18   41 1
    32   19   29 1
    33   20   29 1
    34   21   28 1
    35   22   23 1
    36   22   25 1
    37   23   30 1
    38   24   27 1
    39   24   29 1
    40   25   36 1
    41   26   30 1
    42   26   42 1
    43   27   35 1
    44   28   43 1
    45   30   34 1
    46    1   44 1
    47    2   45 1
    48    3   46 1
    49    4   47 1
    50   11   48 1
    51   11   49 1
    52   12   50 1
    53   12   51 1
    54   13   52 1
    55   13   53 1
    56   14   54 1
    57   14   55 1
    58   15   56 1
    59   16   57 1
    60   17   58 1
    61   18   59 1
    62   19   60 1
    63   19   61 1
    64   19   62 1
    65   20   63 1
    66   20   64 1
    67   20   65 1
    68   21   66 1
    69   21   67 1
    70   22   68 1
    71   22   69 1
    72   23   70 1
    73   23   71 1
    74   24   72 1
    75   24   73 1
    76   25   74 1
    77   25   75 1
    78   26   76 1
    79   26   77 1
    80   27   78 1
    81   28   79 1
    82   29   80 1
    83   30   81 1
    84   32   82 1
    85   32   83 1
    86   33   84 1
    87   33   85 1
    88   34   86 1
    89   35   87 1
    90   36   88 1
    91   40   89 1
    92   41   90 1
    93   42   91 1
    94   43   92 1
@<TRIPOS>MOLECULE
1a2c_ligand_215
   92    94     0     0     0
SMALL
USER_CHARGES

mmff94s_NoEstat = 120.16
@<TRIPOS>ATOM
      1 C1         -7.0660   -4.9282   -2.9366 C.ar      1 <0>        -0.0708
      2 C2         -6.6866   -5.8628   -0.7412 C.ar      1 <0>        -0.0872
      3 C3         -7.8027   -6.0586   -3.2904 C.ar      1 <0>        -0.2241
      4 C4         -7.4233   -6.9931   -1.0950 C.ar      1 <0>        -0.1600
      5 C5         -6.5178   -4.8455   -1.6667 C.ar      1 <0>        -0.1356
      6 C6         -7.9813   -7.0911   -2.3696 C.ar      1 <0>         0.1290
      7 C7         -0.0512   -1.0561    0.2993 C.2       1 <0>         0.6664
      8 C8         -1.8469   -3.0457    2.1630 C.2       1 <0>         0.6651
      9 C9         -3.4040   -2.7670   -0.8258 C.2       1 <0>         0.6454
     10 C10        -1.9621    5.1299   -2.6331 C.cat     1 <0>         0.6349
     11 C11         2.5186   -3.1911    0.6823 C.3       1 <0>        -0.0642
     12 C12         2.4580   -4.6414    0.2376 C.3       1 <0>        -0.0747
     13 C13         1.4874   -1.4827    2.2418 C.3       1 <0>        -0.0873
     14 C14         0.4946   -5.0934    1.7133 C.3       1 <0>        -0.1371
     15 C15         0.0412   -1.4176    1.7503 C.3       1 <0>         0.0360
     16 C16         1.8865   -2.9529    2.0632 C.3       1 <0>        -0.0720
     17 C17         0.5665   -3.7001    2.3454 C.3       1 <0>         0.1201
     18 C18         1.0248   -5.1525    0.2868 C.3       1 <0>         0.1453
     19 C19        -5.7275   -1.2982    0.9287 C.3       1 <0>        -0.0968
     20 C20        -4.2097    0.6462    1.3473 C.3       1 <0>        -0.0986
     21 C21        -5.7209   -3.6214   -1.2834 C.3       1 <0>        -0.0191
     22 C22        -0.9951    2.0137   -3.0747 C.3       1 <0>        -0.1009
     23 C23        -0.8794    1.4488   -1.6540 C.3       1 <0>        -0.0942
     24 C24        -3.7699   -1.5150    2.5525 C.3       1 <0>        -0.0988
     25 C25        -2.3255    2.7368   -3.2725 C.3       1 <0>         0.1966
     26 C26         1.6856    1.6412   -1.5001 C.3       1 <0>         0.1128
     27 C27        -2.8325   -2.1090    1.5076 C.3       1 <0>         0.0786
     28 C28        -4.2317   -3.7794   -1.6077 C.3       1 <0>         0.0744
     29 C29        -4.8597   -0.5919    1.9712 C.3       1 <0>        -0.0678
     30 C30         0.4555    0.7445   -1.3388 C.3       1 <0>         0.1065
     31 N1         -0.4979   -2.7598    1.9615 N.am      1 <0>        -0.4315
     32 N2         -2.0884    6.1613   -1.7083 N.pl3     1 <0>        -0.8671
     33 N3         -1.3601    5.3892   -3.8597 N.pl3     1 <0>        -0.8581
     34 N4          0.4455    0.1980   -0.0008 N.am      1 <0>        -0.5687
     35 N5         -3.5026   -2.9419    0.5527 N.am      1 <0>        -0.5746
     36 N6         -2.4324    3.8372   -2.3442 N.pl3     1 <0>        -0.7533
     37 O1         -0.5362   -1.8555   -0.4928 O.2       1 <0>        -0.5843
     38 O2         -2.2659   -3.9924    2.8322 O.2       1 <0>        -0.6812
     39 O3         -2.7407   -1.8909   -1.3761 O.2       1 <0>        -0.5788
     40 O4         -8.7016   -8.1934   -2.7144 O.3       1 <0>        -0.4938
     41 O5          0.9879   -6.5072   -0.1510 O.3       1 <0>        -0.6030
     42 O6          2.8639    0.9021   -1.2063 O.3       1 <0>        -0.5860
     43 O7         -4.0332   -3.5405   -2.9937 O.3       1 <0>        -0.6021
     44 H1         -6.9320   -4.1292   -3.6606 H         1 <0>         0.1412
     45 H2         -6.2556   -5.7950    0.2544 H         1 <0>         0.1451
     46 H3         -8.2349   -6.1289   -4.2847 H         1 <0>         0.1336
     47 H4         -7.5597   -7.7939   -0.3729 H         1 <0>         0.1567
     48 H5          3.5627   -2.8549    0.7003 H         1 <0>         0.0649
     49 H6          2.0259   -2.5829   -0.0837 H         1 <0>         0.0476
     50 H7          2.8567   -4.7427   -0.7790 H         1 <0>         0.0641
     51 H8          3.1032   -5.2618    0.8729 H         1 <0>         0.0484
     52 H9          2.1569   -0.7868    1.7257 H         1 <0>         0.0596
     53 H10         1.5124   -1.2395    3.3116 H         1 <0>         0.0757
     54 H11         1.0921   -5.7802    2.3299 H         1 <0>         0.0782
     55 H12        -0.5175   -5.5090    1.7393 H         1 <0>         0.0812
     56 H13        -0.5378   -0.6778    2.3126 H         1 <0>         0.0731
     57 H14         2.6304   -3.2407    2.8169 H         1 <0>         0.0511
     58 H15         0.4523   -3.8218    3.4319 H         1 <0>         0.0753
     59 H16         0.3841   -4.5700   -0.3844 H         1 <0>         0.0427
     60 H17        -6.4424   -0.5993    0.4810 H         1 <0>         0.0450
     61 H18        -6.3080   -2.1101    1.3767 H         1 <0>         0.0406
     62 H19        -5.1167   -1.7184    0.1225 H         1 <0>         0.0274
     63 H20        -3.5507    0.3732    0.5159 H         1 <0>         0.0476
     64 H21        -4.9709    1.3343    0.9644 H         1 <0>         0.0170
     65 H22        -3.6139    1.1889    2.0888 H         1 <0>         0.0477
     66 H23        -5.8540   -3.4265   -0.2108 H         1 <0>         0.0814
     67 H24        -6.1504   -2.7541   -1.8005 H         1 <0>         0.0685
     68 H25        -0.1747    2.7139   -3.2707 H         1 <0>         0.1016
     69 H26        -0.9072    1.2071   -3.8124 H         1 <0>         0.0660
     70 H27        -1.7000    0.7382   -1.4859 H         1 <0>         0.0512
     71 H28        -1.0340    2.2618   -0.9330 H         1 <0>         0.0454
     72 H29        -3.1790   -0.9587    3.2928 H         1 <0>         0.0575
     73 H30        -4.2588   -2.3274    3.1083 H         1 <0>         0.0743
     74 H31        -3.1606    2.0474   -3.1093 H         1 <0>         0.0662
     75 H32        -2.4046    3.1224   -4.2942 H         1 <0>         0.0622
     76 H33         1.6463    2.5133   -0.8391 H         1 <0>         0.0321
     77 H34         1.7645    2.0016   -2.5321 H         1 <0>         0.0204
     78 H35        -2.2612   -1.3523    0.9714 H         1 <0>         0.0749
     79 H36        -3.8738   -4.7901   -1.3784 H         1 <0>         0.0719
     80 H37        -5.5109   -0.2494    2.7849 H         1 <0>         0.0609
     81 H38         0.5463   -0.0881   -2.0483 H         1 <0>         0.1063
     82 H39        -2.5229    6.0190   -0.8004 H         1 <0>         0.4792
     83 H40        -1.7480    7.0966   -1.9190 H         1 <0>         0.4819
     84 H41        -1.2517    4.6584   -4.5587 H         1 <0>         0.4802
     85 H42        -1.0115    6.3167   -4.0895 H         1 <0>         0.4826
     86 H43         0.8216    0.7626    0.7549 H         1 <0>         0.3101
     87 H44        -4.0841   -3.7053    0.9020 H         1 <0>         0.3087
     88 H45        -2.8683    3.7014   -1.4240 H         1 <0>         0.4846
     89 H46        -8.5946   -8.3827   -3.6602 H         1 <0>         0.4194
     90 H47         1.8515   -6.8926    0.0654 H         1 <0>         0.4036
     91 H48         2.9483    0.8828   -0.2393 H         1 <0>         0.4114
     92 H49        -4.9061   -3.5934   -3.4159 H         1 <0>         0.3944
@<TRIPOS>BOND
     1    1    3 ar
     2    1    5 ar
     3    2    4 ar
     4    2    5 ar
     5    3    6 ar
     6    4    6 ar
     7    5   21 1
     8    6   40 1
     9    7   15 1
    10    7   34 am
    11    7   37 2
    12    8   27 1
    13    8   31 am
    14    8   38 2
    15    9   28 1
    16    9   35 am
    17    9   39 2
    18   10   32 1
    19   10   33 1
    20   10   36 1
    21   11   12 1
    22   11   16 1
    23   12   18 1
    24   13   15 1
    25   13   16 1
    26   14   17 1
    27   14   18 1
    28   15   31 1
    29   16   17 1
    30   17   31 1
    31   18   41 1
    32   19   29 1
    33   20   29 1
    34   21   28 1
    35   22   23 1
    36   22   25 1
    37   23   30 1
    38   24   27 1
    39   24   29 1
    40   25   36 1
    41   26   30 1
    42   26   42 1
    43   27   35 1
    44   28   43 1
    45   30   34 1
    46    1   44 1
    47    2   45 1
    48    3   46 1
    49    4   47 1
    50   11   48 1
    51   11   49 1
    52   12   50 1
    53   12   51 1
    54   13   52 1
    55   13   53 1
    56   14   54 1
    57   14   55 1
    58   15   56 1
    59   16   57 1
    60   17   58 1
    61   18   59 1
    62   19   60 1
    63   19   61 1
    64   19   62 1
    65   20   63 1
    66   20   64 1
    67   20   65 1
    68   21   66 1
    69   21   67 1
    70   22   68 1
    71   22   69 1
    72   23   70 1
    73   23   71 1
    74   24   72 1
    75   24   73 1
    76   25   74 1
    77   25   75 1
    78   26   76 1
    79   26   77 1
    80   27   78 1
    81   28   79 1
    82   29   80 1
    83   30   81 1
    84   32   82 1
    85   32   83 1
    86   33   84 1
    87   33   85 1
    88   34   86 1
    89   35   87 1
    90   36   88 1
    91   40   89 1
    92   41   90 1
    93   42   91 1
    94   43   92 1
@<TRIPOS>MOLECULE
1a2c_ligand_216
   92    94     0     0     0
SMALL
USER_CHARGES

mmff94s_NoEstat = 120.39
@<TRIPOS>ATOM
      1 C1         -7.0660   -4.9282   -2.9366 C.ar      1 <0>        -0.0708
      2 C2         -6.6866   -5.8628   -0.7412 C.ar      1 <0>        -0.0872
      3 C3         -7.8027   -6.0586   -3.2904 C.ar      1 <0>        -0.2241
      4 C4         -7.4233   -6.9931   -1.0950 C.ar      1 <0>        -0.1600
      5 C5         -6.5178   -4.8455   -1.6667 C.ar      1 <0>        -0.1356
      6 C6         -7.9813   -7.0911   -2.3696 C.ar      1 <0>         0.1290
      7 C7         -0.0512   -1.0561    0.2993 C.2       1 <0>         0.6664
      8 C8         -1.8469   -3.0457    2.1630 C.2       1 <0>         0.6651
      9 C9         -3.4040   -2.7670   -0.8258 C.2       1 <0>         0.6454
     10 C10         2.3484    5.4202   -2.4822 C.cat     1 <0>         0.6349
     11 C11         2.5186   -3.1911    0.6823 C.3       1 <0>        -0.0642
     12 C12         2.4580   -4.6414    0.2376 C.3       1 <0>        -0.0747
     13 C13         1.4874   -1.4827    2.2418 C.3       1 <0>        -0.0873
     14 C14         0.4946   -5.0934    1.7133 C.3       1 <0>        -0.1371
     15 C15         0.0412   -1.4176    1.7503 C.3       1 <0>         0.0360
     16 C16         1.8865   -2.9529    2.0632 C.3       1 <0>        -0.0720
     17 C17         0.5665   -3.7001    2.3454 C.3       1 <0>         0.1201
     18 C18         1.0248   -5.1525    0.2868 C.3       1 <0>         0.1453
     19 C19        -5.7275   -1.2982    0.9287 C.3       1 <0>        -0.0968
     20 C20        -4.2097    0.6462    1.3473 C.3       1 <0>        -0.0986
     21 C21        -5.7209   -3.6214   -1.2834 C.3       1 <0>        -0.0191
     22 C22         0.1864    2.9452   -2.6852 C.3       1 <0>        -0.1009
     23 C23         0.2513    2.2726   -1.3090 C.3       1 <0>        -0.0942
     24 C24        -3.7699   -1.5150    2.5525 C.3       1 <0>        -0.0988
     25 C25         0.0377    4.4591   -2.5512 C.3       1 <0>         0.1966
     26 C26         1.7383    0.3016   -2.0469 C.3       1 <0>         0.1128
     27 C27        -2.8325   -2.1090    1.5076 C.3       1 <0>         0.0786
     28 C28        -4.2317   -3.7794   -1.6077 C.3       1 <0>         0.0744
     29 C29        -4.8597   -0.5919    1.9712 C.3       1 <0>        -0.0678
     30 C30         0.4555    0.7445   -1.3388 C.3       1 <0>         0.1065
     31 N1         -0.4979   -2.7598    1.9615 N.am      1 <0>        -0.4315
     32 N2          3.4133    5.9433   -1.7561 N.pl3     1 <0>        -0.8671
     33 N3          2.4598    5.3087   -3.8639 N.pl3     1 <0>        -0.8581
     34 N4          0.4455    0.1980   -0.0008 N.am      1 <0>        -0.5687
     35 N5         -3.5026   -2.9419    0.5527 N.am      1 <0>        -0.5746
     36 N6          1.1689    5.0055   -1.8399 N.pl3     1 <0>        -0.7533
     37 O1         -0.5362   -1.8555   -0.4928 O.2       1 <0>        -0.5843
     38 O2         -2.2659   -3.9924    2.8322 O.2       1 <0>        -0.6812
     39 O3         -2.7407   -1.8909   -1.3761 O.2       1 <0>        -0.5788
     40 O4         -8.7016   -8.1934   -2.7144 O.3       1 <0>        -0.4938
     41 O5          0.9879   -6.5072   -0.1510 O.3       1 <0>        -0.6030
     42 O6          2.8703    0.8436   -1.3793 O.3       1 <0>        -0.5860
     43 O7         -4.0332   -3.5405   -2.9937 O.3       1 <0>        -0.6021
     44 H1         -6.9320   -4.1292   -3.6606 H         1 <0>         0.1412
     45 H2         -6.2556   -5.7950    0.2544 H         1 <0>         0.1451
     46 H3         -8.2349   -6.1289   -4.2847 H         1 <0>         0.1336
     47 H4         -7.5597   -7.7939   -0.3729 H         1 <0>         0.1567
     48 H5          3.5627   -2.8549    0.7003 H         1 <0>         0.0649
     49 H6          2.0259   -2.5829   -0.0837 H         1 <0>         0.0476
     50 H7          2.8567   -4.7427   -0.7790 H         1 <0>         0.0641
     51 H8          3.1032   -5.2618    0.8729 H         1 <0>         0.0484
     52 H9          2.1569   -0.7868    1.7257 H         1 <0>         0.0596
     53 H10         1.5124   -1.2395    3.3116 H         1 <0>         0.0757
     54 H11         1.0921   -5.7802    2.3299 H         1 <0>         0.0782
     55 H12        -0.5175   -5.5090    1.7393 H         1 <0>         0.0812
     56 H13        -0.5378   -0.6778    2.3126 H         1 <0>         0.0731
     57 H14         2.6304   -3.2407    2.8169 H         1 <0>         0.0511
     58 H15         0.4523   -3.8218    3.4319 H         1 <0>         0.0753
     59 H16         0.3841   -4.5700   -0.3844 H         1 <0>         0.0427
     60 H17        -6.4424   -0.5993    0.4810 H         1 <0>         0.0450
     61 H18        -6.3080   -2.1101    1.3767 H         1 <0>         0.0406
     62 H19        -5.1167   -1.7184    0.1225 H         1 <0>         0.0274
     63 H20        -3.5507    0.3732    0.5159 H         1 <0>         0.0476
     64 H21        -4.9709    1.3343    0.9644 H         1 <0>         0.0170
     65 H22        -3.6139    1.1889    2.0888 H         1 <0>         0.0477
     66 H23        -5.8540   -3.4265   -0.2108 H         1 <0>         0.0814
     67 H24        -6.1504   -2.7541   -1.8005 H         1 <0>         0.0685
     68 H25         1.0953    2.7243   -3.2569 H         1 <0>         0.1016
     69 H26        -0.6566    2.5474   -3.2629 H         1 <0>         0.0660
     70 H27        -0.6751    2.4928   -0.7614 H         1 <0>         0.0512
     71 H28         1.0606    2.7304   -0.7258 H         1 <0>         0.0454
     72 H29        -3.1790   -0.9587    3.2928 H         1 <0>         0.0575
     73 H30        -4.2588   -2.3274    3.1083 H         1 <0>         0.0743
     74 H31        -0.8805    4.7040   -2.0069 H         1 <0>         0.0662
     75 H32        -0.0236    4.9278   -3.5387 H         1 <0>         0.0622
     76 H33         1.7614    0.6251   -3.0928 H         1 <0>         0.0321
     77 H34         1.8289   -0.7905   -2.0281 H         1 <0>         0.0204
     78 H35        -2.2612   -1.3523    0.9714 H         1 <0>         0.0749
     79 H36        -3.8738   -4.7901   -1.3784 H         1 <0>         0.0719
     80 H37        -5.5109   -0.2494    2.7849 H         1 <0>         0.0609
     81 H38        -0.3978    0.3245   -1.8868 H         1 <0>         0.1063
     82 H39         3.3762    6.0453   -0.7454 H         1 <0>         0.4792
     83 H40         4.2662    6.2435   -2.2224 H         1 <0>         0.4819
     84 H41         1.7005    4.9307   -4.4253 H         1 <0>         0.4802
     85 H42         3.3044    5.6013   -4.3494 H         1 <0>         0.4826
     86 H43         0.8216    0.7626    0.7549 H         1 <0>         0.3101
     87 H44        -4.0841   -3.7053    0.9020 H         1 <0>         0.3087
     88 H45         1.1403    5.1101   -0.8184 H         1 <0>         0.4846
     89 H46        -8.5946   -8.3827   -3.6602 H         1 <0>         0.4194
     90 H47         1.8515   -6.8926    0.0654 H         1 <0>         0.4036
     91 H48         2.9636    1.7601   -1.6856 H         1 <0>         0.4114
     92 H49        -4.9061   -3.5934   -3.4159 H         1 <0>         0.3944
@<TRIPOS>BOND
     1    1    3 ar
     2    1    5 ar
     3    2    4 ar
     4    2    5 ar
     5    3    6 ar
     6    4    6 ar
     7    5   21 1
     8    6   40 1
     9    7   15 1
    10    7   34 am
    11    7   37 2
    12    8   27 1
    13    8   31 am
    14    8   38 2
    15    9   28 1
    16    9   35 am
    17    9   39 2
    18   10   32 1
    19   10   33 1
    20   10   36 1
    21   11   12 1
    22   11   16 1
    23   12   18 1
    24   13   15 1
    25   13   16 1
    26   14   17 1
    27   14   18 1
    28   15   31 1
    29   16   17 1
    30   17   31 1
    31   18   41 1
    32   19   29 1
    33   20   29 1
    34   21   28 1
    35   22   23 1
    36   22   25 1
    37   23   30 1
    38   24   27 1
    39   24   29 1
    40   25   36 1
    41   26   30 1
    42   26   42 1
    43   27   35 1
    44   28   43 1
    45   30   34 1
    46    1   44 1
    47    2   45 1
    48    3   46 1
    49    4   47 1
    50   11   48 1
    51   11   49 1
    52   12   50 1
    53   12   51 1
    54   13   52 1
    55   13   53 1
    56   14   54 1
    57   14   55 1
    58   15   56 1
    59   16   57 1
    60   17   58 1
    61   18   59 1
    62   19   60 1
    63   19   61 1
    64   19   62 1
    65   20   63 1
    66   20   64 1
    67   20   65 1
    68   21   66 1
    69   21   67 1
    70   22   68 1
    71   22   69 1
    72   23   70 1
    73   23   71 1
    74   24   72 1
    75   24   73 1
    76   25   74 1
    77   25   75 1
    78   26   76 1
    79   26   77 1
    80   27   78 1
    81   28   79 1
    82   29   80 1
    83   30   81 1
    84   32   82 1
    85   32   83 1
    86   33   84 1
    87   33   85 1
    88   34   86 1
    89   35   87 1
    90   36   88 1
    91   40   89 1
    92   41   90 1
    93   42   91 1
    94   43   92 1
@<TRIPOS>MOLECULE
1a2c_ligand_217
   92    94     0     0     0
SMALL
USER_CHARGES

mmff94s_NoEstat = 120.59
@<TRIPOS>ATOM
      1 C1         -4.0924   -6.1062   -2.0965 C.ar      1 <0>        -0.0708
      2 C2         -5.0027   -5.0910   -0.1021 C.ar      1 <0>        -0.0872
      3 C3         -3.8731   -7.2908   -1.3934 C.ar      1 <0>        -0.2241
      4 C4         -4.7835   -6.2756    0.6010 C.ar      1 <0>        -0.1600
      5 C5         -4.6543   -5.0223   -1.4414 C.ar      1 <0>        -0.1356
      6 C6         -4.2186   -7.3755   -0.0446 C.ar      1 <0>         0.1290
      7 C7         -0.0512   -1.0561    0.2993 C.2       1 <0>         0.6664
      8 C8         -1.8469   -3.0457    2.1630 C.2       1 <0>         0.6651
      9 C9         -3.6974   -2.0123   -0.8263 C.2       1 <0>         0.6454
     10 C10        -5.0538    3.8595   -0.8167 C.cat     1 <0>         0.6349
     11 C11         2.5186   -3.1911    0.6823 C.3       1 <0>        -0.0642
     12 C12         2.4580   -4.6414    0.2376 C.3       1 <0>        -0.0747
     13 C13         1.4874   -1.4827    2.2418 C.3       1 <0>        -0.0873
     14 C14         0.4946   -5.0934    1.7133 C.3       1 <0>        -0.1371
     15 C15         0.0412   -1.4176    1.7503 C.3       1 <0>         0.0360
     16 C16         1.8865   -2.9529    2.0632 C.3       1 <0>        -0.0720
     17 C17         0.5665   -3.7001    2.3454 C.3       1 <0>         0.1201
     18 C18         1.0248   -5.1525    0.2868 C.3       1 <0>         0.1453
     19 C19        -3.4345   -0.1597    3.7904 C.3       1 <0>        -0.0968
     20 C20        -3.1391   -2.5257    4.5483 C.3       1 <0>        -0.0986
     21 C21        -4.8923   -3.7401   -2.2028 C.3       1 <0>        -0.0191
     22 C22        -1.8968    1.7896   -1.0188 C.3       1 <0>        -0.1009
     23 C23        -0.4337    2.0012   -1.4250 C.3       1 <0>        -0.0942
     24 C24        -4.1436   -2.0954    2.2850 C.3       1 <0>        -0.0988
     25 C25        -2.7062    3.0733   -1.1890 C.3       1 <0>         0.1966
     26 C26         1.9058    0.9774   -1.7696 C.3       1 <0>         0.1128
     27 C27        -2.8325   -2.1090    1.5076 C.3       1 <0>         0.0786
     28 C28        -3.6869   -2.7967   -2.1325 C.3       1 <0>         0.0744
     29 C29        -4.0154   -1.5731    3.7302 C.3       1 <0>        -0.0678
     30 C30         0.4555    0.7445   -1.3388 C.3       1 <0>         0.1065
     31 N1         -0.4979   -2.7598    1.9615 N.am      1 <0>        -0.4315
     32 N2         -6.3630    3.5983   -0.4259 N.pl3     1 <0>        -0.8671
     33 N3         -4.7148    5.1409   -1.2376 N.pl3     1 <0>        -0.8581
     34 N4          0.4455    0.1980   -0.0008 N.am      1 <0>        -0.5687
     35 N5         -2.9650   -2.6361    0.1813 N.am      1 <0>        -0.5746
     36 N6         -4.0759    2.8502   -0.7911 N.pl3     1 <0>        -0.7533
     37 O1         -0.5362   -1.8555   -0.4928 O.2       1 <0>        -0.5843
     38 O2         -2.2659   -3.9924    2.8322 O.2       1 <0>        -0.6812
     39 O3         -4.3065   -0.9527   -0.6974 O.2       1 <0>        -0.5788
     40 O4         -4.0062   -8.5320    0.6410 O.3       1 <0>        -0.4938
     41 O5          0.9879   -6.5072   -0.1510 O.3       1 <0>        -0.6030
     42 O6          2.6391   -0.2366   -1.6731 O.3       1 <0>        -0.5860
     43 O7         -3.7616   -1.8713   -3.2074 O.3       1 <0>        -0.6021
     44 H1         -3.8198   -6.0497   -3.1468 H         1 <0>         0.1412
     45 H2         -5.4436   -4.2391    0.4091 H         1 <0>         0.1451
     46 H3         -3.4330   -8.1441   -1.9019 H         1 <0>         0.1336
     47 H4         -5.0556   -6.3357    1.6515 H         1 <0>         0.1567
     48 H5          3.5627   -2.8549    0.7003 H         1 <0>         0.0649
     49 H6          2.0259   -2.5829   -0.0837 H         1 <0>         0.0476
     50 H7          2.8567   -4.7427   -0.7790 H         1 <0>         0.0641
     51 H8          3.1032   -5.2618    0.8729 H         1 <0>         0.0484
     52 H9          2.1569   -0.7868    1.7257 H         1 <0>         0.0596
     53 H10         1.5124   -1.2395    3.3116 H         1 <0>         0.0757
     54 H11         1.0921   -5.7802    2.3299 H         1 <0>         0.0782
     55 H12        -0.5175   -5.5090    1.7393 H         1 <0>         0.0812
     56 H13        -0.5378   -0.6778    2.3126 H         1 <0>         0.0731
     57 H14         2.6304   -3.2407    2.8169 H         1 <0>         0.0511
     58 H15         0.4523   -3.8218    3.4319 H         1 <0>         0.0753
     59 H16         0.3841   -4.5700   -0.3844 H         1 <0>         0.0427
     60 H17        -3.2863    0.1550    4.8292 H         1 <0>         0.0450
     61 H18        -4.1066    0.5680    3.3260 H         1 <0>         0.0406
     62 H19        -2.4667   -0.1061    3.2804 H         1 <0>         0.0274
     63 H20        -2.1236   -2.5806    4.1412 H         1 <0>         0.0476
     64 H21        -3.0691   -2.1929    5.5894 H         1 <0>         0.0170
     65 H22        -3.5594   -3.5370    4.5502 H         1 <0>         0.0477
     66 H23        -5.7841   -3.2421   -1.7993 H         1 <0>         0.0814
     67 H24        -5.1367   -3.9958   -3.2415 H         1 <0>         0.0685
     68 H25        -2.3478    0.9988   -1.6296 H         1 <0>         0.1016
     69 H26        -1.9571    1.4582    0.0248 H         1 <0>         0.0660
     70 H27         0.0021    2.7844   -0.7898 H         1 <0>         0.0512
     71 H28        -0.4008    2.3932   -2.4497 H         1 <0>         0.0454
     72 H29        -4.5642   -3.1100    2.3009 H         1 <0>         0.0575
     73 H30        -4.8775   -1.4748    1.7520 H         1 <0>         0.0743
     74 H31        -2.6850    3.4001   -2.2340 H         1 <0>         0.0662
     75 H32        -2.2833    3.8776   -0.5783 H         1 <0>         0.0622
     76 H33         2.4001    1.7344   -1.1517 H         1 <0>         0.0321
     77 H34         1.9468    1.3120   -2.8125 H         1 <0>         0.0204
     78 H35        -2.3644   -1.1272    1.4485 H         1 <0>         0.0749
     79 H36        -2.7406   -3.3442   -2.2154 H         1 <0>         0.0719
     80 H37        -5.0090   -1.5561    4.1946 H         1 <0>         0.0609
     81 H38         0.0149    0.0012   -2.0158 H         1 <0>         0.1063
     82 H39        -6.6569    2.6769   -0.1130 H         1 <0>         0.4792
     83 H40        -7.0699    4.3298   -0.4455 H         1 <0>         0.4819
     84 H41        -3.7671    5.3663   -1.5301 H         1 <0>         0.4802
     85 H42        -5.4059    5.8868   -1.2630 H         1 <0>         0.4826
     86 H43         0.8216    0.7626    0.7549 H         1 <0>         0.3101
     87 H44        -2.4970   -3.5171   -0.0370 H         1 <0>         0.3087
     88 H45        -4.3806    1.9226   -0.4717 H         1 <0>         0.4846
     89 H46        -3.2195   -8.9860    0.2991 H         1 <0>         0.4194
     90 H47         1.8515   -6.8926    0.0654 H         1 <0>         0.4036
     91 H48         2.8853   -0.3414   -0.7399 H         1 <0>         0.4114
     92 H49        -4.4012   -2.2307   -3.8437 H         1 <0>         0.3944
@<TRIPOS>BOND
     1    1    3 ar
     2    1    5 ar
     3    2    4 ar
     4    2    5 ar
     5    3    6 ar
     6    4    6 ar
     7    5   21 1
     8    6   40 1
     9    7   15 1
    10    7   34 am
    11    7   37 2
    12    8   27 1
    13    8   31 am
    14    8   38 2
    15    9   28 1
    16    9   35 am
    17    9   39 2
    18   10   32 1
    19   10   33 1
    20   10   36 1
    21   11   12 1
    22   11   16 1
    23   12   18 1
    24   13   15 1
    25   13   16 1
    26   14   17 1
    27   14   18 1
    28   15   31 1
    29   16   17 1
    30   17   31 1
    31   18   41 1
    32   19   29 1
    33   20   29 1
    34   21   28 1
    35   22   23 1
    36   22   25 1
    37   23   30 1
    38   24   27 1
    39   24   29 1
    40   25   36 1
    41   26   30 1
    42   26   42 1
    43   27   35 1
    44   28   43 1
    45   30   34 1
    46    1   44 1
    47    2   45 1
    48    3   46 1
    49    4   47 1
    50   11   48 1
    51   11   49 1
    52   12   50 1
    53   12   51 1
    54   13   52 1
    55   13   53 1
    56   14   54 1
    57   14   55 1
    58   15   56 1
    59   16   57 1
    60   17   58 1
    61   18   59 1
    62   19   60 1
    63   19   61 1
    64   19   62 1
    65   20   63 1
    66   20   64 1
    67   20   65 1
    68   21   66 1
    69   21   67 1
    70   22   68 1
    71   22   69 1
    72   23   70 1
    73   23   71 1
    74   24   72 1
    75   24   73 1
    76   25   74 1
    77   25   75 1
    78   26   76 1
    79   26   77 1
    80   27   78 1
    81   28   79 1
    82   29   80 1
    83   30   81 1
    84   32   82 1
    85   32   83 1
    86   33   84 1
    87   33   85 1
    88   34   86 1
    89   35   87 1
    90   36   88 1
    91   40   89 1
    92   41   90 1
    93   42   91 1
    94   43   92 1
@<TRIPOS>MOLECULE
1a2c_ligand_218
   92    94     0     0     0
SMALL
USER_CHARGES

mmff94s_NoEstat = 120.68
@<TRIPOS>ATOM
      1 C1         -7.7321   -6.3947    0.9855 C.ar      1 <0>        -0.0708
      2 C2         -5.9176   -7.7704    0.1779 C.ar      1 <0>        -0.0872
      3 C3         -8.6337   -7.4232    0.7116 C.ar      1 <0>        -0.2241
      4 C4         -6.8193   -8.7989   -0.0959 C.ar      1 <0>        -0.1600
      5 C5         -6.3862   -6.5821    0.7150 C.ar      1 <0>        -0.1356
      6 C6         -8.1773   -8.6253    0.1709 C.ar      1 <0>         0.1290
      7 C7         -0.0512   -1.0561    0.2993 C.2       1 <0>         0.6664
      8 C8         -1.8469   -3.0457    2.1630 C.2       1 <0>         0.6651
      9 C9         -3.9484   -3.7154   -0.0348 C.2       1 <0>         0.6454
     10 C10        -3.3294    2.0808   -3.5565 C.cat     1 <0>         0.6349
     11 C11         2.5186   -3.1911    0.6823 C.3       1 <0>        -0.0642
     12 C12         2.4580   -4.6414    0.2376 C.3       1 <0>        -0.0747
     13 C13         1.4874   -1.4827    2.2418 C.3       1 <0>        -0.0873
     14 C14         0.4946   -5.0934    1.7133 C.3       1 <0>        -0.1371
     15 C15         0.0412   -1.4176    1.7503 C.3       1 <0>         0.0360
     16 C16         1.8865   -2.9529    2.0632 C.3       1 <0>        -0.0720
     17 C17         0.5665   -3.7001    2.3454 C.3       1 <0>         0.1201
     18 C18         1.0248   -5.1525    0.2868 C.3       1 <0>         0.1453
     19 C19        -5.5746   -0.7475    1.4860 C.3       1 <0>        -0.0968
     20 C20        -3.7112    0.7464    0.7408 C.3       1 <0>        -0.0986
     21 C21        -5.4100   -5.4690    1.0122 C.3       1 <0>        -0.0191
     22 C22        -1.0374    2.7415   -0.6235 C.3       1 <0>        -0.1009
     23 C23         0.2513    2.2726   -1.3090 C.3       1 <0>        -0.0942
     24 C24        -3.2372   -1.0062    2.4788 C.3       1 <0>        -0.0988
     25 C25        -2.2684    2.1304   -1.2894 C.3       1 <0>         0.1966
     26 C26         1.7383    0.3016   -2.0469 C.3       1 <0>         0.1128
     27 C27        -2.8325   -2.1090    1.5076 C.3       1 <0>         0.0786
     28 C28        -5.2285   -4.5282   -0.1835 C.3       1 <0>         0.0744
     29 C29        -4.2955   -0.0321    1.9228 C.3       1 <0>        -0.0678
     30 C30         0.4555    0.7445   -1.3388 C.3       1 <0>         0.1065
     31 N1         -0.4979   -2.7598    1.9615 N.am      1 <0>        -0.4315
     32 N2         -3.3390    2.4766   -4.8899 N.pl3     1 <0>        -0.8671
     33 N3         -4.3382    1.2447   -3.0902 N.pl3     1 <0>        -0.8581
     34 N4          0.4455    0.1980   -0.0008 N.am      1 <0>        -0.5687
     35 N5         -3.9193   -2.9688    1.1410 N.am      1 <0>        -0.5746
     36 N6         -2.3186    2.5130   -2.6805 N.pl3     1 <0>        -0.7533
     37 O1         -0.5362   -1.8555   -0.4928 O.2       1 <0>        -0.5843
     38 O2         -2.2659   -3.9924    2.8322 O.2       1 <0>        -0.6812
     39 O3         -3.0587   -3.7239   -0.8825 O.2       1 <0>        -0.5788
     40 O4         -9.0569   -9.6294   -0.0948 O.3       1 <0>        -0.4938
     41 O5          0.9879   -6.5072   -0.1510 O.3       1 <0>        -0.6030
     42 O6          2.8703    0.8436   -1.3793 O.3       1 <0>        -0.5860
     43 O7         -6.3247   -3.6263   -0.2319 O.3       1 <0>        -0.6021
     44 H1         -8.0970   -5.4618    1.4065 H         1 <0>         0.1412
     45 H2         -4.8612   -7.9147   -0.0329 H         1 <0>         0.1451
     46 H3         -9.6902   -7.2819    0.9218 H         1 <0>         0.1336
     47 H4         -6.4574   -9.7335   -0.5163 H         1 <0>         0.1567
     48 H5          3.5627   -2.8549    0.7003 H         1 <0>         0.0649
     49 H6          2.0259   -2.5829   -0.0837 H         1 <0>         0.0476
     50 H7          2.8567   -4.7427   -0.7790 H         1 <0>         0.0641
     51 H8          3.1032   -5.2618    0.8729 H         1 <0>         0.0484
     52 H9          2.1569   -0.7868    1.7257 H         1 <0>         0.0596
     53 H10         1.5124   -1.2395    3.3116 H         1 <0>         0.0757
     54 H11         1.0921   -5.7802    2.3299 H         1 <0>         0.0782
     55 H12        -0.5175   -5.5090    1.7393 H         1 <0>         0.0812
     56 H13        -0.5378   -0.6778    2.3126 H         1 <0>         0.0731
     57 H14         2.6304   -3.2407    2.8169 H         1 <0>         0.0511
     58 H15         0.4523   -3.8218    3.4319 H         1 <0>         0.0753
     59 H16         0.3841   -4.5700   -0.3844 H         1 <0>         0.0427
     60 H17        -6.2768   -0.0422    1.0282 H         1 <0>         0.0450
     61 H18        -6.0867   -1.2049    2.3377 H         1 <0>         0.0406
     62 H19        -5.3599   -1.5330    0.7535 H         1 <0>         0.0274
     63 H20        -3.4369    0.0757   -0.0807 H         1 <0>         0.0476
     64 H21        -4.4352    1.4732    0.3573 H         1 <0>         0.0170
     65 H22        -2.8146    1.2981    1.0427 H         1 <0>         0.0477
     66 H23        -4.4434   -5.9047    1.2984 H         1 <0>         0.0814
     67 H24        -5.7660   -4.9245    1.8958 H         1 <0>         0.0685
     68 H25        -1.0263    2.4588    0.4356 H         1 <0>         0.1016
     69 H26        -1.1105    3.8350   -0.6596 H         1 <0>         0.0660
     70 H27         1.1110    2.7323   -0.8028 H         1 <0>         0.0512
     71 H28         0.2685    2.6560   -2.3373 H         1 <0>         0.0454
     72 H29        -2.3434   -0.4411    2.7760 H         1 <0>         0.0575
     73 H30        -3.6273   -1.4576    3.4018 H         1 <0>         0.0743
     74 H31        -3.1804    2.4738   -0.7898 H         1 <0>         0.0662
     75 H32        -2.2399    1.0381   -1.2201 H         1 <0>         0.0622
     76 H33         1.7614    0.6251   -3.0928 H         1 <0>         0.0321
     77 H34         1.8289   -0.7905   -2.0281 H         1 <0>         0.0204
     78 H35        -2.3687   -1.7253    0.5998 H         1 <0>         0.0749
     79 H36        -5.1957   -5.0805   -1.1302 H         1 <0>         0.0719
     80 H37        -4.5575    0.6951    2.7011 H         1 <0>         0.0609
     81 H38        -0.3978    0.3245   -1.8868 H         1 <0>         0.1063
     82 H39        -2.6237    3.0881   -5.2742 H         1 <0>         0.4792
     83 H40        -4.0716    2.1635   -5.5226 H         1 <0>         0.4819
     84 H41        -4.3615    0.9362   -2.1213 H         1 <0>         0.4802
     85 H42        -5.0788    0.9188   -3.7066 H         1 <0>         0.4826
     86 H43         0.8216    0.7626    0.7549 H         1 <0>         0.3101
     87 H44        -4.7157   -3.0377    1.7764 H         1 <0>         0.3087
     88 H45        -1.5986    3.1289   -3.0773 H         1 <0>         0.4846
     89 H46        -9.9180   -9.2630   -0.3518 H         1 <0>         0.4194
     90 H47         1.8515   -6.8926    0.0654 H         1 <0>         0.4036
     91 H48         2.9636    1.7601   -1.6856 H         1 <0>         0.4114
     92 H49        -7.0193   -3.9975    0.3363 H         1 <0>         0.3944
@<TRIPOS>BOND
     1    1    3 ar
     2    1    5 ar
     3    2    4 ar
     4    2    5 ar
     5    3    6 ar
     6    4    6 ar
     7    5   21 1
     8    6   40 1
     9    7   15 1
    10    7   34 am
    11    7   37 2
    12    8   27 1
    13    8   31 am
    14    8   38 2
    15    9   28 1
    16    9   35 am
    17    9   39 2
    18   10   32 1
    19   10   33 1
    20   10   36 1
    21   11   12 1
    22   11   16 1
    23   12   18 1
    24   13   15 1
    25   13   16 1
    26   14   17 1
    27   14   18 1
    28   15   31 1
    29   16   17 1
    30   17   31 1
    31   18   41 1
    32   19   29 1
    33   20   29 1
    34   21   28 1
    35   22   23 1
    36   22   25 1
    37   23   30 1
    38   24   27 1
    39   24   29 1
    40   25   36 1
    41   26   30 1
    42   26   42 1
    43   27   35 1
    44   28   43 1
    45   30   34 1
    46    1   44 1
    47    2   45 1
    48    3   46 1
    49    4   47 1
    50   11   48 1
    51   11   49 1
    52   12   50 1
    53   12   51 1
    54   13   52 1
    55   13   53 1
    56   14   54 1
    57   14   55 1
    58   15   56 1
    59   16   57 1
    60   17   58 1
    61   18   59 1
    62   19   60 1
    63   19   61 1
    64   19   62 1
    65   20   63 1
    66   20   64 1
    67   20   65 1
    68   21   66 1
    69   21   67 1
    70   22   68 1
    71   22   69 1
    72   23   70 1
    73   23   71 1
    74   24   72 1
    75   24   73 1
    76   25   74 1
    77   25   75 1
    78   26   76 1
    79   26   77 1
    80   27   78 1
    81   28   79 1
    82   29   80 1
    83   30   81 1
    84   32   82 1
    85   32   83 1
    86   33   84 1
    87   33   85 1
    88   34   86 1
    89   35   87 1
    90   36   88 1
    91   40   89 1
    92   41   90 1
    93   42   91 1
    94   43   92 1
@<TRIPOS>MOLECULE
1a2c_ligand_219
   92    94     0     0     0
SMALL
USER_CHARGES

mmff94s_NoEstat = 120.76
@<TRIPOS>ATOM
      1 C1         -7.1365   -2.8677   -2.9678 C.ar      1 <0>        -0.0708
      2 C2         -5.7068   -0.9564   -2.5937 C.ar      1 <0>        -0.0872
      3 C3         -8.2603   -2.0492   -2.8547 C.ar      1 <0>        -0.2241
      4 C4         -6.8306   -0.1379   -2.4807 C.ar      1 <0>        -0.1600
      5 C5         -5.8748   -2.3103   -2.8358 C.ar      1 <0>        -0.1356
      6 C6         -8.1073   -0.6843   -2.6112 C.ar      1 <0>         0.1290
      7 C7         -0.0512   -1.0561    0.2993 C.2       1 <0>         0.6664
      8 C8         -1.8469   -3.0457    2.1630 C.2       1 <0>         0.6651
      9 C9         -3.4040   -2.7670   -0.8258 C.2       1 <0>         0.6454
     10 C10        -5.0538    3.8595   -0.8167 C.cat     1 <0>         0.6349
     11 C11         2.5186   -3.1911    0.6823 C.3       1 <0>        -0.0642
     12 C12         2.4580   -4.6414    0.2376 C.3       1 <0>        -0.0747
     13 C13         1.4874   -1.4827    2.2418 C.3       1 <0>        -0.0873
     14 C14         0.4946   -5.0934    1.7133 C.3       1 <0>        -0.1371
     15 C15         0.0412   -1.4176    1.7503 C.3       1 <0>         0.0360
     16 C16         1.8865   -2.9529    2.0632 C.3       1 <0>        -0.0720
     17 C17         0.5665   -3.7001    2.3454 C.3       1 <0>         0.1201
     18 C18         1.0248   -5.1525    0.2868 C.3       1 <0>         0.1453
     19 C19        -5.7275   -1.2982    0.9287 C.3       1 <0>        -0.0968
     20 C20        -4.2097    0.6462    1.3473 C.3       1 <0>        -0.0986
     21 C21        -4.6582   -3.1963   -2.9589 C.3       1 <0>        -0.0191
     22 C22        -1.8968    1.7896   -1.0188 C.3       1 <0>        -0.1009
     23 C23        -0.4337    2.0012   -1.4250 C.3       1 <0>        -0.0942
     24 C24        -3.7699   -1.5150    2.5525 C.3       1 <0>        -0.0988
     25 C25        -2.7062    3.0733   -1.1890 C.3       1 <0>         0.1966
     26 C26         1.9058    0.9774   -1.7696 C.3       1 <0>         0.1128
     27 C27        -2.8325   -2.1090    1.5076 C.3       1 <0>         0.0786
     28 C28        -4.2317   -3.7794   -1.6077 C.3       1 <0>         0.0744
     29 C29        -4.8597   -0.5919    1.9712 C.3       1 <0>        -0.0678
     30 C30         0.4555    0.7445   -1.3388 C.3       1 <0>         0.1065
     31 N1         -0.4979   -2.7598    1.9615 N.am      1 <0>        -0.4315
     32 N2         -6.3630    3.5983   -0.4259 N.pl3     1 <0>        -0.8671
     33 N3         -4.7148    5.1409   -1.2376 N.pl3     1 <0>        -0.8581
     34 N4          0.4455    0.1980   -0.0008 N.am      1 <0>        -0.5687
     35 N5         -3.5026   -2.9419    0.5527 N.am      1 <0>        -0.5746
     36 N6         -4.0759    2.8502   -0.7911 N.pl3     1 <0>        -0.7533
     37 O1         -0.5362   -1.8555   -0.4928 O.2       1 <0>        -0.5843
     38 O2         -2.2659   -3.9924    2.8322 O.2       1 <0>        -0.6812
     39 O3         -2.7407   -1.8909   -1.3761 O.2       1 <0>        -0.5788
     40 O4         -9.2039    0.1147   -2.5025 O.3       1 <0>        -0.4938
     41 O5          0.9879   -6.5072   -0.1510 O.3       1 <0>        -0.6030
     42 O6          1.9423    1.4367   -3.1144 O.3       1 <0>        -0.5860
     43 O7         -3.4297   -4.9297   -1.8337 O.3       1 <0>        -0.6021
     44 H1         -7.2656   -3.9298   -3.1574 H         1 <0>         0.1412
     45 H2         -4.7158   -0.5219   -2.4909 H         1 <0>         0.1451
     46 H3         -9.2520   -2.4807   -2.9575 H         1 <0>         0.1336
     47 H4         -6.7049    0.9250   -2.2918 H         1 <0>         0.1567
     48 H5          3.5627   -2.8549    0.7003 H         1 <0>         0.0649
     49 H6          2.0259   -2.5829   -0.0837 H         1 <0>         0.0476
     50 H7          2.8567   -4.7427   -0.7790 H         1 <0>         0.0641
     51 H8          3.1032   -5.2618    0.8729 H         1 <0>         0.0484
     52 H9          2.1569   -0.7868    1.7257 H         1 <0>         0.0596
     53 H10         1.5124   -1.2395    3.3116 H         1 <0>         0.0757
     54 H11         1.0921   -5.7802    2.3299 H         1 <0>         0.0782
     55 H12        -0.5175   -5.5090    1.7393 H         1 <0>         0.0812
     56 H13        -0.5378   -0.6778    2.3126 H         1 <0>         0.0731
     57 H14         2.6304   -3.2407    2.8169 H         1 <0>         0.0511
     58 H15         0.4523   -3.8218    3.4319 H         1 <0>         0.0753
     59 H16         0.3841   -4.5700   -0.3844 H         1 <0>         0.0427
     60 H17        -6.4424   -0.5993    0.4810 H         1 <0>         0.0450
     61 H18        -6.3080   -2.1101    1.3767 H         1 <0>         0.0406
     62 H19        -5.1167   -1.7184    0.1225 H         1 <0>         0.0274
     63 H20        -3.5507    0.3732    0.5159 H         1 <0>         0.0476
     64 H21        -4.9709    1.3343    0.9644 H         1 <0>         0.0170
     65 H22        -3.6139    1.1889    2.0888 H         1 <0>         0.0477
     66 H23        -3.8338   -2.6171   -3.3960 H         1 <0>         0.0814
     67 H24        -4.8817   -3.9909   -3.6819 H         1 <0>         0.0685
     68 H25        -2.3478    0.9988   -1.6296 H         1 <0>         0.1016
     69 H26        -1.9571    1.4582    0.0248 H         1 <0>         0.0660
     70 H27         0.0021    2.7844   -0.7898 H         1 <0>         0.0512
     71 H28        -0.4008    2.3932   -2.4497 H         1 <0>         0.0454
     72 H29        -3.1790   -0.9587    3.2928 H         1 <0>         0.0575
     73 H30        -4.2588   -2.3274    3.1083 H         1 <0>         0.0743
     74 H31        -2.6850    3.4001   -2.2340 H         1 <0>         0.0662
     75 H32        -2.2833    3.8776   -0.5783 H         1 <0>         0.0622
     76 H33         2.5067    0.0649   -1.6955 H         1 <0>         0.0321
     77 H34         2.3741    1.7433   -1.1408 H         1 <0>         0.0204
     78 H35        -2.2612   -1.3523    0.9714 H         1 <0>         0.0749
     79 H36        -5.0980   -4.0774   -1.0053 H         1 <0>         0.0719
     80 H37        -5.5109   -0.2494    2.7849 H         1 <0>         0.0609
     81 H38         0.0149    0.0012   -2.0158 H         1 <0>         0.1063
     82 H39        -6.6569    2.6769   -0.1130 H         1 <0>         0.4792
     83 H40        -7.0699    4.3298   -0.4455 H         1 <0>         0.4819
     84 H41        -3.7671    5.3663   -1.5301 H         1 <0>         0.4802
     85 H42        -5.4059    5.8868   -1.2630 H         1 <0>         0.4826
     86 H43         0.8216    0.7626    0.7549 H         1 <0>         0.3101
     87 H44        -4.0841   -3.7053    0.9020 H         1 <0>         0.3087
     88 H45        -4.3806    1.9226   -0.4717 H         1 <0>         0.4846
     89 H46        -9.9437   -0.3803   -2.1156 H         1 <0>         0.4194
     90 H47         1.8515   -6.8926    0.0654 H         1 <0>         0.4036
     91 H48         1.8522    0.6531   -3.6803 H         1 <0>         0.4114
     92 H49        -3.5708   -5.1935   -2.7576 H         1 <0>         0.3944
@<TRIPOS>BOND
     1    1    3 ar
     2    1    5 ar
     3    2    4 ar
     4    2    5 ar
     5    3    6 ar
     6    4    6 ar
     7    5   21 1
     8    6   40 1
     9    7   15 1
    10    7   34 am
    11    7   37 2
    12    8   27 1
    13    8   31 am
    14    8   38 2
    15    9   28 1
    16    9   35 am
    17    9   39 2
    18   10   32 1
    19   10   33 1
    20   10   36 1
    21   11   12 1
    22   11   16 1
    23   12   18 1
    24   13   15 1
    25   13   16 1
    26   14   17 1
    27   14   18 1
    28   15   31 1
    29   16   17 1
    30   17   31 1
    31   18   41 1
    32   19   29 1
    33   20   29 1
    34   21   28 1
    35   22   23 1
    36   22   25 1
    37   23   30 1
    38   24   27 1
    39   24   29 1
    40   25   36 1
    41   26   30 1
    42   26   42 1
    43   27   35 1
    44   28   43 1
    45   30   34 1
    46    1   44 1
    47    2   45 1
    48    3   46 1
    49    4   47 1
    50   11   48 1
    51   11   49 1
    52   12   50 1
    53   12   51 1
    54   13   52 1
    55   13   53 1
    56   14   54 1
    57   14   55 1
    58   15   56 1
    59   16   57 1
    60   17   58 1
    61   18   59 1
    62   19   60 1
    63   19   61 1
    64   19   62 1
    65   20   63 1
    66   20   64 1
    67   20   65 1
    68   21   66 1
    69   21   67 1
    70   22   68 1
    71   22   69 1
    72   23   70 1
    73   23   71 1
    74   24   72 1
    75   24   73 1
    76   25   74 1
    77   25   75 1
    78   26   76 1
    79   26   77 1
    80   27   78 1
    81   28   79 1
    82   29   80 1
    83   30   81 1
    84   32   82 1
    85   32   83 1
    86   33   84 1
    87   33   85 1
    88   34   86 1
    89   35   87 1
    90   36   88 1
    91   40   89 1
    92   41   90 1
    93   42   91 1
    94   43   92 1
@<TRIPOS>MOLECULE
1a2c_ligand_220
   92    94     0     0     0
SMALL
USER_CHARGES

mmff94s_NoEstat = 120.99
@<TRIPOS>ATOM
      1 C1         -4.7608   -5.1990   -4.1804 C.ar      1 <0>        -0.0708
      2 C2         -2.8526   -5.9340   -2.8936 C.ar      1 <0>        -0.0872
      3 C3         -4.4187   -6.0908   -5.1970 C.ar      1 <0>        -0.2241
      4 C4         -2.5105   -6.8257   -3.9101 C.ar      1 <0>        -0.1600
      5 C5         -3.9732   -5.1326   -3.0424 C.ar      1 <0>        -0.1356
      6 C6         -3.2935   -6.9042   -5.0619 C.ar      1 <0>         0.1290
      7 C7         -0.0512   -1.0561    0.2993 C.2       1 <0>         0.6664
      8 C8         -1.8469   -3.0457    2.1630 C.2       1 <0>         0.6651
      9 C9         -3.6974   -2.0123   -0.8263 C.2       1 <0>         0.6454
     10 C10        -5.0538    3.8595   -0.8167 C.cat     1 <0>         0.6349
     11 C11         2.5186   -3.1911    0.6823 C.3       1 <0>        -0.0642
     12 C12         2.4580   -4.6414    0.2376 C.3       1 <0>        -0.0747
     13 C13         1.4874   -1.4827    2.2418 C.3       1 <0>        -0.0873
     14 C14         0.4946   -5.0934    1.7133 C.3       1 <0>        -0.1371
     15 C15         0.0412   -1.4176    1.7503 C.3       1 <0>         0.0360
     16 C16         1.8865   -2.9529    2.0632 C.3       1 <0>        -0.0720
     17 C17         0.5665   -3.7001    2.3454 C.3       1 <0>         0.1201
     18 C18         1.0248   -5.1525    0.2868 C.3       1 <0>         0.1453
     19 C19        -3.4345   -0.1597    3.7904 C.3       1 <0>        -0.0968
     20 C20        -3.1391   -2.5257    4.5483 C.3       1 <0>        -0.0986
     21 C21        -4.3440   -4.1677   -1.9416 C.3       1 <0>        -0.0191
     22 C22        -1.8968    1.7896   -1.0188 C.3       1 <0>        -0.1009
     23 C23        -0.4337    2.0012   -1.4250 C.3       1 <0>        -0.0942
     24 C24        -4.1436   -2.0954    2.2850 C.3       1 <0>        -0.0988
     25 C25        -2.7062    3.0733   -1.1890 C.3       1 <0>         0.1966
     26 C26         1.9058    0.9774   -1.7696 C.3       1 <0>         0.1128
     27 C27        -2.8325   -2.1090    1.5076 C.3       1 <0>         0.0786
     28 C28        -3.6869   -2.7967   -2.1325 C.3       1 <0>         0.0744
     29 C29        -4.0154   -1.5731    3.7302 C.3       1 <0>        -0.0678
     30 C30         0.4555    0.7445   -1.3388 C.3       1 <0>         0.1065
     31 N1         -0.4979   -2.7598    1.9615 N.am      1 <0>        -0.4315
     32 N2         -6.3630    3.5983   -0.4259 N.pl3     1 <0>        -0.8671
     33 N3         -4.7148    5.1409   -1.2376 N.pl3     1 <0>        -0.8581
     34 N4          0.4455    0.1980   -0.0008 N.am      1 <0>        -0.5687
     35 N5         -2.9650   -2.6361    0.1813 N.am      1 <0>        -0.5746
     36 N6         -4.0759    2.8502   -0.7911 N.pl3     1 <0>        -0.7533
     37 O1         -0.5362   -1.8555   -0.4928 O.2       1 <0>        -0.5843
     38 O2         -2.2659   -3.9924    2.8322 O.2       1 <0>        -0.6812
     39 O3         -4.3065   -0.9527   -0.6974 O.2       1 <0>        -0.5788
     40 O4         -2.9606   -7.7755   -6.0531 O.3       1 <0>        -0.4938
     41 O5          0.9879   -6.5072   -0.1510 O.3       1 <0>        -0.6030
     42 O6          2.6391   -0.2366   -1.6731 O.3       1 <0>        -0.5860
     43 O7         -4.4245   -2.0617   -3.0984 O.3       1 <0>        -0.6021
     44 H1         -5.6389   -4.5694   -4.2948 H         1 <0>         0.1412
     45 H2         -2.2369   -5.8798   -1.9996 H         1 <0>         0.1451
     46 H3         -5.0326   -6.1474   -6.0915 H         1 <0>         0.1336
     47 H4         -1.6332   -7.4575   -3.7986 H         1 <0>         0.1567
     48 H5          3.5627   -2.8549    0.7003 H         1 <0>         0.0649
     49 H6          2.0259   -2.5829   -0.0837 H         1 <0>         0.0476
     50 H7          2.8567   -4.7427   -0.7790 H         1 <0>         0.0641
     51 H8          3.1032   -5.2618    0.8729 H         1 <0>         0.0484
     52 H9          2.1569   -0.7868    1.7257 H         1 <0>         0.0596
     53 H10         1.5124   -1.2395    3.3116 H         1 <0>         0.0757
     54 H11         1.0921   -5.7802    2.3299 H         1 <0>         0.0782
     55 H12        -0.5175   -5.5090    1.7393 H         1 <0>         0.0812
     56 H13        -0.5378   -0.6778    2.3126 H         1 <0>         0.0731
     57 H14         2.6304   -3.2407    2.8169 H         1 <0>         0.0511
     58 H15         0.4523   -3.8218    3.4319 H         1 <0>         0.0753
     59 H16         0.3841   -4.5700   -0.3844 H         1 <0>         0.0427
     60 H17        -3.2863    0.1550    4.8292 H         1 <0>         0.0450
     61 H18        -4.1066    0.5680    3.3260 H         1 <0>         0.0406
     62 H19        -2.4667   -0.1061    3.2804 H         1 <0>         0.0274
     63 H20        -2.1236   -2.5806    4.1412 H         1 <0>         0.0476
     64 H21        -3.0691   -2.1929    5.5894 H         1 <0>         0.0170
     65 H22        -3.5594   -3.5370    4.5502 H         1 <0>         0.0477
     66 H23        -4.0491   -4.5950   -0.9738 H         1 <0>         0.0814
     67 H24        -5.4376   -4.0834   -1.9105 H         1 <0>         0.0685
     68 H25        -2.3478    0.9988   -1.6296 H         1 <0>         0.1016
     69 H26        -1.9571    1.4582    0.0248 H         1 <0>         0.0660
     70 H27         0.0021    2.7844   -0.7898 H         1 <0>         0.0512
     71 H28        -0.4008    2.3932   -2.4497 H         1 <0>         0.0454
     72 H29        -4.5642   -3.1100    2.3009 H         1 <0>         0.0575
     73 H30        -4.8775   -1.4748    1.7520 H         1 <0>         0.0743
     74 H31        -2.6850    3.4001   -2.2340 H         1 <0>         0.0662
     75 H32        -2.2833    3.8776   -0.5783 H         1 <0>         0.0622
     76 H33         2.4001    1.7344   -1.1517 H         1 <0>         0.0321
     77 H34         1.9468    1.3120   -2.8125 H         1 <0>         0.0204
     78 H35        -2.3644   -1.1272    1.4485 H         1 <0>         0.0749
     79 H36        -2.6537   -2.8903   -2.4873 H         1 <0>         0.0719
     80 H37        -5.0090   -1.5561    4.1946 H         1 <0>         0.0609
     81 H38         0.0149    0.0012   -2.0158 H         1 <0>         0.1063
     82 H39        -6.6569    2.6769   -0.1130 H         1 <0>         0.4792
     83 H40        -7.0699    4.3298   -0.4455 H         1 <0>         0.4819
     84 H41        -3.7671    5.3663   -1.5301 H         1 <0>         0.4802
     85 H42        -5.4059    5.8868   -1.2630 H         1 <0>         0.4826
     86 H43         0.8216    0.7626    0.7549 H         1 <0>         0.3101
     87 H44        -2.4970   -3.5171   -0.0370 H         1 <0>         0.3087
     88 H45        -4.3806    1.9226   -0.4717 H         1 <0>         0.4846
     89 H46        -3.2124   -7.4135   -6.9176 H         1 <0>         0.4194
     90 H47         1.8515   -6.8926    0.0654 H         1 <0>         0.4036
     91 H48         2.8853   -0.3414   -0.7399 H         1 <0>         0.4114
     92 H49        -4.9875   -2.6994   -3.5670 H         1 <0>         0.3944
@<TRIPOS>BOND
     1    1    3 ar
     2    1    5 ar
     3    2    4 ar
     4    2    5 ar
     5    3    6 ar
     6    4    6 ar
     7    5   21 1
     8    6   40 1
     9    7   15 1
    10    7   34 am
    11    7   37 2
    12    8   27 1
    13    8   31 am
    14    8   38 2
    15    9   28 1
    16    9   35 am
    17    9   39 2
    18   10   32 1
    19   10   33 1
    20   10   36 1
    21   11   12 1
    22   11   16 1
    23   12   18 1
    24   13   15 1
    25   13   16 1
    26   14   17 1
    27   14   18 1
    28   15   31 1
    29   16   17 1
    30   17   31 1
    31   18   41 1
    32   19   29 1
    33   20   29 1
    34   21   28 1
    35   22   23 1
    36   22   25 1
    37   23   30 1
    38   24   27 1
    39   24   29 1
    40   25   36 1
    41   26   30 1
    42   26   42 1
    43   27   35 1
    44   28   43 1
    45   30   34 1
    46    1   44 1
    47    2   45 1
    48    3   46 1
    49    4   47 1
    50   11   48 1
    51   11   49 1
    52   12   50 1
    53   12   51 1
    54   13   52 1
    55   13   53 1
    56   14   54 1
    57   14   55 1
    58   15   56 1
    59   16   57 1
    60   17   58 1
    61   18   59 1
    62   19   60 1
    63   19   61 1
    64   19   62 1
    65   20   63 1
    66   20   64 1
    67   20   65 1
    68   21   66 1
    69   21   67 1
    70   22   68 1
    71   22   69 1
    72   23   70 1
    73   23   71 1
    74   24   72 1
    75   24   73 1
    76   25   74 1
    77   25   75 1
    78   26   76 1
    79   26   77 1
    80   27   78 1
    81   28   79 1
    82   29   80 1
    83   30   81 1
    84   32   82 1
    85   32   83 1
    86   33   84 1
    87   33   85 1
    88   34   86 1
    89   35   87 1
    90   36   88 1
    91   40   89 1
    92   41   90 1
    93   42   91 1
    94   43   92 1
@<TRIPOS>MOLECULE
1a2c_ligand_221
   92    94     0     0     0
SMALL
USER_CHARGES

mmff94s_NoEstat = 121.01
@<TRIPOS>ATOM
      1 C1         -8.7474   -4.8377   -0.2783 C.ar      1 <0>        -0.0708
      2 C2         -7.7847   -5.1607    1.9139 C.ar      1 <0>        -0.0872
      3 C3         -9.7347   -5.7778    0.0167 C.ar      1 <0>        -0.2241
      4 C4         -8.7720   -6.1008    2.2090 C.ar      1 <0>        -0.1600
      5 C5         -7.7856   -4.5418    0.6742 C.ar      1 <0>        -0.1356
      6 C6         -9.7470   -6.4094    1.2604 C.ar      1 <0>         0.1290
      7 C7         -0.0512   -1.0561    0.2993 C.2       1 <0>         0.6664
      8 C8         -1.8469   -3.0457    2.1630 C.2       1 <0>         0.6651
      9 C9         -4.2799   -3.2353   -0.1780 C.2       1 <0>         0.6454
     10 C10        -3.7342    3.6586   -3.2920 C.cat     1 <0>         0.6349
     11 C11         2.5186   -3.1911    0.6823 C.3       1 <0>        -0.0642
     12 C12         2.4580   -4.6414    0.2376 C.3       1 <0>        -0.0747
     13 C13         1.4874   -1.4827    2.2418 C.3       1 <0>        -0.0873
     14 C14         0.4946   -5.0934    1.7133 C.3       1 <0>        -0.1371
     15 C15         0.0412   -1.4176    1.7503 C.3       1 <0>         0.0360
     16 C16         1.8865   -2.9529    2.0632 C.3       1 <0>        -0.0720
     17 C17         0.5665   -3.7001    2.3454 C.3       1 <0>         0.1201
     18 C18         1.0248   -5.1525    0.2868 C.3       1 <0>         0.1453
     19 C19        -5.5746   -0.7475    1.4860 C.3       1 <0>        -0.0968
     20 C20        -3.7112    0.7464    0.7408 C.3       1 <0>        -0.0986
     21 C21        -6.7172   -3.5235    0.3550 C.3       1 <0>        -0.0191
     22 C22        -1.2019    2.6554   -0.7648 C.3       1 <0>        -0.1009
     23 C23        -0.8794    1.4488   -1.6540 C.3       1 <0>        -0.0942
     24 C24        -3.2372   -1.0062    2.4788 C.3       1 <0>        -0.0988
     25 C25        -2.5638    3.2498   -1.1169 C.3       1 <0>         0.1966
     26 C26         1.6856    1.6412   -1.5001 C.3       1 <0>         0.1128
     27 C27        -2.8325   -2.1090    1.5076 C.3       1 <0>         0.0786
     28 C28        -5.4811   -4.1668   -0.2823 C.3       1 <0>         0.0744
     29 C29        -4.2955   -0.0321    1.9228 C.3       1 <0>        -0.0678
     30 C30         0.4555    0.7445   -1.3388 C.3       1 <0>         0.1065
     31 N1         -0.4979   -2.7598    1.9615 N.am      1 <0>        -0.4315
     32 N2         -3.6991    4.0801   -4.6171 N.pl3     1 <0>        -0.8671
     33 N3         -4.9372    3.2153   -2.7532 N.pl3     1 <0>        -0.8581
     34 N4          0.4455    0.1980   -0.0008 N.am      1 <0>        -0.5687
     35 N5         -3.9193   -2.9688    1.1410 N.am      1 <0>        -0.5746
     36 N6         -2.5755    3.6752   -2.4964 N.pl3     1 <0>        -0.7533
     37 O1         -0.5362   -1.8555   -0.4928 O.2       1 <0>        -0.5843
     38 O2         -2.2659   -3.9924    2.8322 O.2       1 <0>        -0.6812
     39 O3         -3.7165   -2.7712   -1.1667 O.2       1 <0>        -0.5788
     40 O4        -10.7114   -7.3255    1.5489 O.3       1 <0>        -0.4938
     41 O5          0.9879   -6.5072   -0.1510 O.3       1 <0>        -0.6030
     42 O6          2.8639    0.9021   -1.2063 O.3       1 <0>        -0.5860
     43 O7         -5.7416   -4.4039   -1.6583 O.3       1 <0>        -0.6021
     44 H1         -8.7458   -4.3511   -1.2499 H         1 <0>         0.1412
     45 H2         -7.0291   -4.9263    2.6593 H         1 <0>         0.1451
     46 H3        -10.4915   -6.0137   -0.7262 H         1 <0>         0.1336
     47 H4         -8.7768   -6.5888    3.1801 H         1 <0>         0.1567
     48 H5          3.5627   -2.8549    0.7003 H         1 <0>         0.0649
     49 H6          2.0259   -2.5829   -0.0837 H         1 <0>         0.0476
     50 H7          2.8567   -4.7427   -0.7790 H         1 <0>         0.0641
     51 H8          3.1032   -5.2618    0.8729 H         1 <0>         0.0484
     52 H9          2.1569   -0.7868    1.7257 H         1 <0>         0.0596
     53 H10         1.5124   -1.2395    3.3116 H         1 <0>         0.0757
     54 H11         1.0921   -5.7802    2.3299 H         1 <0>         0.0782
     55 H12        -0.5175   -5.5090    1.7393 H         1 <0>         0.0812
     56 H13        -0.5378   -0.6778    2.3126 H         1 <0>         0.0731
     57 H14         2.6304   -3.2407    2.8169 H         1 <0>         0.0511
     58 H15         0.4523   -3.8218    3.4319 H         1 <0>         0.0753
     59 H16         0.3841   -4.5700   -0.3844 H         1 <0>         0.0427
     60 H17        -6.2768   -0.0422    1.0282 H         1 <0>         0.0450
     61 H18        -6.0867   -1.2049    2.3377 H         1 <0>         0.0406
     62 H19        -5.3599   -1.5330    0.7535 H         1 <0>         0.0274
     63 H20        -3.4369    0.0757   -0.0807 H         1 <0>         0.0476
     64 H21        -4.4352    1.4732    0.3573 H         1 <0>         0.0170
     65 H22        -2.8146    1.2981    1.0427 H         1 <0>         0.0477
     66 H23        -6.4347   -2.9971    1.2765 H         1 <0>         0.0814
     67 H24        -7.1526   -2.7613   -0.3034 H         1 <0>         0.0685
     68 H25        -1.2036    2.3575    0.2901 H         1 <0>         0.1016
     69 H26        -0.4298    3.4262   -0.8760 H         1 <0>         0.0660
     70 H27        -0.8663    1.7736   -2.7033 H         1 <0>         0.0512
     71 H28        -1.6959    0.7195   -1.5759 H         1 <0>         0.0454
     72 H29        -2.3434   -0.4411    2.7760 H         1 <0>         0.0575
     73 H30        -3.6273   -1.4576    3.4018 H         1 <0>         0.0743
     74 H31        -2.7806    4.1099   -0.4745 H         1 <0>         0.0662
     75 H32        -3.3565    2.5102   -0.9645 H         1 <0>         0.0622
     76 H33         1.6463    2.5133   -0.8391 H         1 <0>         0.0321
     77 H34         1.7645    2.0016   -2.5321 H         1 <0>         0.0204
     78 H35        -2.3687   -1.7253    0.5998 H         1 <0>         0.0749
     79 H36        -5.2354   -5.1248    0.1910 H         1 <0>         0.0719
     80 H37        -4.5575    0.6951    2.7011 H         1 <0>         0.0609
     81 H38         0.5463   -0.0881   -2.0483 H         1 <0>         0.1063
     82 H39        -2.8433    4.4138   -5.0526 H         1 <0>         0.4792
     83 H40        -4.5387    4.0680   -5.1916 H         1 <0>         0.4819
     84 H41        -4.9983    2.9002   -1.7881 H         1 <0>         0.4802
     85 H42        -5.7876    3.1935   -3.3109 H         1 <0>         0.4826
     86 H43         0.8216    0.7626    0.7549 H         1 <0>         0.3101
     87 H44        -4.4587   -3.4100    1.8874 H         1 <0>         0.3087
     88 H45        -1.7147    4.0119   -2.9445 H         1 <0>         0.4846
     89 H46       -10.9730   -7.8029    0.7455 H         1 <0>         0.4194
     90 H47         1.8515   -6.8926    0.0654 H         1 <0>         0.4036
     91 H48         2.9483    0.8828   -0.2393 H         1 <0>         0.4114
     92 H49        -6.7032   -4.3382   -1.7776 H         1 <0>         0.3944
@<TRIPOS>BOND
     1    1    3 ar
     2    1    5 ar
     3    2    4 ar
     4    2    5 ar
     5    3    6 ar
     6    4    6 ar
     7    5   21 1
     8    6   40 1
     9    7   15 1
    10    7   34 am
    11    7   37 2
    12    8   27 1
    13    8   31 am
    14    8   38 2
    15    9   28 1
    16    9   35 am
    17    9   39 2
    18   10   32 1
    19   10   33 1
    20   10   36 1
    21   11   12 1
    22   11   16 1
    23   12   18 1
    24   13   15 1
    25   13   16 1
    26   14   17 1
    27   14   18 1
    28   15   31 1
    29   16   17 1
    30   17   31 1
    31   18   41 1
    32   19   29 1
    33   20   29 1
    34   21   28 1
    35   22   23 1
    36   22   25 1
    37   23   30 1
    38   24   27 1
    39   24   29 1
    40   25   36 1
    41   26   30 1
    42   26   42 1
    43   27   35 1
    44   28   43 1
    45   30   34 1
    46    1   44 1
    47    2   45 1
    48    3   46 1
    49    4   47 1
    50   11   48 1
    51   11   49 1
    52   12   50 1
    53   12   51 1
    54   13   52 1
    55   13   53 1
    56   14   54 1
    57   14   55 1
    58   15   56 1
    59   16   57 1
    60   17   58 1
    61   18   59 1
    62   19   60 1
    63   19   61 1
    64   19   62 1
    65   20   63 1
    66   20   64 1
    67   20   65 1
    68   21   66 1
    69   21   67 1
    70   22   68 1
    71   22   69 1
    72   23   70 1
    73   23   71 1
    74   24   72 1
    75   24   73 1
    76   25   74 1
    77   25   75 1
    78   26   76 1
    79   26   77 1
    80   27   78 1
    81   28   79 1
    82   29   80 1
    83   30   81 1
    84   32   82 1
    85   32   83 1
    86   33   84 1
    87   33   85 1
    88   34   86 1
    89   35   87 1
    90   36   88 1
    91   40   89 1
    92   41   90 1
    93   42   91 1
    94   43   92 1
@<TRIPOS>MOLECULE
1a2c_ligand_222
   92    94     0     0     0
SMALL
USER_CHARGES

mmff94s_NoEstat = 121.36
@<TRIPOS>ATOM
      1 C1         -6.7567   -4.6738   -3.5933 C.ar      1 <0>        -0.0708
      2 C2         -7.3456   -4.9208   -1.2633 C.ar      1 <0>        -0.0872
      3 C3         -7.6642   -5.6785   -3.9292 C.ar      1 <0>        -0.2241
      4 C4         -8.2530   -5.9255   -1.5991 C.ar      1 <0>        -0.1600
      5 C5         -6.6096   -4.3084   -2.2649 C.ar      1 <0>        -0.1356
      6 C6         -8.4124   -6.3044   -2.9320 C.ar      1 <0>         0.1290
      7 C7         -0.0512   -1.0561    0.2993 C.2       1 <0>         0.6664
      8 C8         -1.8469   -3.0457    2.1630 C.2       1 <0>         0.6651
      9 C9         -3.4040   -2.7670   -0.8258 C.2       1 <0>         0.6454
     10 C10        -2.1772   -1.1627   -4.7494 C.cat     1 <0>         0.6349
     11 C11         2.5186   -3.1911    0.6823 C.3       1 <0>        -0.0642
     12 C12         2.4580   -4.6414    0.2376 C.3       1 <0>        -0.0747
     13 C13         1.4874   -1.4827    2.2418 C.3       1 <0>        -0.0873
     14 C14         0.4946   -5.0934    1.7133 C.3       1 <0>        -0.1371
     15 C15         0.0412   -1.4176    1.7503 C.3       1 <0>         0.0360
     16 C16         1.8865   -2.9529    2.0632 C.3       1 <0>        -0.0720
     17 C17         0.5665   -3.7001    2.3454 C.3       1 <0>         0.1201
     18 C18         1.0248   -5.1525    0.2868 C.3       1 <0>         0.1453
     19 C19        -5.7275   -1.2982    0.9287 C.3       1 <0>        -0.0968
     20 C20        -4.2097    0.6462    1.3473 C.3       1 <0>        -0.0986
     21 C21        -5.6277   -3.2203   -1.9015 C.3       1 <0>        -0.0191
     22 C22        -0.9951    2.0137   -3.0747 C.3       1 <0>        -0.1009
     23 C23        -0.8794    1.4488   -1.6540 C.3       1 <0>        -0.0942
     24 C24        -3.7699   -1.5150    2.5525 C.3       1 <0>        -0.0988
     25 C25        -0.9093    0.9015   -4.1176 C.3       1 <0>         0.1966
     26 C26         1.6856    1.6412   -1.5001 C.3       1 <0>         0.1128
     27 C27        -2.8325   -2.1090    1.5076 C.3       1 <0>         0.0786
     28 C28        -4.2317   -3.7794   -1.6077 C.3       1 <0>         0.0744
     29 C29        -4.8597   -0.5919    1.9712 C.3       1 <0>        -0.0678
     30 C30         0.4555    0.7445   -1.3388 C.3       1 <0>         0.1065
     31 N1         -0.4979   -2.7598    1.9615 N.am      1 <0>        -0.4315
     32 N2         -3.2267   -2.0473   -4.5232 N.pl3     1 <0>        -0.8671
     33 N3         -1.3100   -1.3971   -5.8110 N.pl3     1 <0>        -0.8581
     34 N4          0.4455    0.1980   -0.0008 N.am      1 <0>        -0.5687
     35 N5         -3.5026   -2.9419    0.5527 N.am      1 <0>        -0.5746
     36 N6         -1.9845   -0.0421   -3.9232 N.pl3     1 <0>        -0.7533
     37 O1         -0.5362   -1.8555   -0.4928 O.2       1 <0>        -0.5843
     38 O2         -2.2659   -3.9924    2.8322 O.2       1 <0>        -0.6812
     39 O3         -2.7407   -1.8909   -1.3761 O.2       1 <0>        -0.5788
     40 O4         -9.2991   -7.2836   -3.2599 O.3       1 <0>        -0.4938
     41 O5          0.9879   -6.5072   -0.1510 O.3       1 <0>        -0.6030
     42 O6          1.5971    2.7470   -0.6113 O.3       1 <0>        -0.5860
     43 O7         -3.5703   -4.0395   -2.8375 O.3       1 <0>        -0.6021
     44 H1         -6.1783   -4.1922   -4.3770 H         1 <0>         0.1412
     45 H2         -7.2282   -4.6319   -0.2220 H         1 <0>         0.1451
     46 H3         -7.7839   -5.9690   -4.9692 H         1 <0>         0.1336
     47 H4         -8.8337   -6.4088   -0.8178 H         1 <0>         0.1567
     48 H5          3.5627   -2.8549    0.7003 H         1 <0>         0.0649
     49 H6          2.0259   -2.5829   -0.0837 H         1 <0>         0.0476
     50 H7          2.8567   -4.7427   -0.7790 H         1 <0>         0.0641
     51 H8          3.1032   -5.2618    0.8729 H         1 <0>         0.0484
     52 H9          2.1569   -0.7868    1.7257 H         1 <0>         0.0596
     53 H10         1.5124   -1.2395    3.3116 H         1 <0>         0.0757
     54 H11         1.0921   -5.7802    2.3299 H         1 <0>         0.0782
     55 H12        -0.5175   -5.5090    1.7393 H         1 <0>         0.0812
     56 H13        -0.5378   -0.6778    2.3126 H         1 <0>         0.0731
     57 H14         2.6304   -3.2407    2.8169 H         1 <0>         0.0511
     58 H15         0.4523   -3.8218    3.4319 H         1 <0>         0.0753
     59 H16         0.3841   -4.5700   -0.3844 H         1 <0>         0.0427
     60 H17        -6.4424   -0.5993    0.4810 H         1 <0>         0.0450
     61 H18        -6.3080   -2.1101    1.3767 H         1 <0>         0.0406
     62 H19        -5.1167   -1.7184    0.1225 H         1 <0>         0.0274
     63 H20        -3.5507    0.3732    0.5159 H         1 <0>         0.0476
     64 H21        -4.9709    1.3343    0.9644 H         1 <0>         0.0170
     65 H22        -3.6139    1.1889    2.0888 H         1 <0>         0.0477
     66 H23        -6.0051   -2.6719   -1.0280 H         1 <0>         0.0814
     67 H24        -5.5997   -2.4925   -2.7222 H         1 <0>         0.0685
     68 H25        -1.9473    2.5434   -3.1941 H         1 <0>         0.1016
     69 H26        -0.1993    2.7456   -3.2583 H         1 <0>         0.0660
     70 H27        -1.7000    0.7382   -1.4859 H         1 <0>         0.0512
     71 H28        -1.0340    2.2618   -0.9330 H         1 <0>         0.0454
     72 H29        -3.1790   -0.9587    3.2928 H         1 <0>         0.0575
     73 H30        -4.2588   -2.3274    3.1083 H         1 <0>         0.0743
     74 H31         0.0481    0.3762   -4.0351 H         1 <0>         0.0662
     75 H32        -0.9770    1.3169   -5.1283 H         1 <0>         0.0622
     76 H33         1.7842    2.0214   -2.5223 H         1 <0>         0.0321
     77 H34         2.5988    1.0866   -1.2555 H         1 <0>         0.0204
     78 H35        -2.2612   -1.3523    0.9714 H         1 <0>         0.0749
     79 H36        -4.2834   -4.7163   -1.0404 H         1 <0>         0.0719
     80 H37        -5.5109   -0.2494    2.7849 H         1 <0>         0.0609
     81 H38         0.5463   -0.0881   -2.0483 H         1 <0>         0.1063
     82 H39        -3.8838   -1.9173   -3.7587 H         1 <0>         0.4792
     83 H40        -3.3646   -2.8583   -5.1217 H         1 <0>         0.4819
     84 H41        -0.5324   -0.7707   -6.0048 H         1 <0>         0.4802
     85 H42        -1.4312   -2.2010   -6.4224 H         1 <0>         0.4826
     86 H43         0.8216    0.7626    0.7549 H         1 <0>         0.3101
     87 H44        -4.0841   -3.7053    0.9020 H         1 <0>         0.3087
     88 H45        -2.6541    0.0831   -3.1543 H         1 <0>         0.4846
     89 H46        -8.9810   -7.7812   -4.0301 H         1 <0>         0.4194
     90 H47         1.8515   -6.8926    0.0654 H         1 <0>         0.4036
     91 H48         1.0115    3.3975   -1.0313 H         1 <0>         0.4114
     92 H49        -4.2525   -4.0407   -3.5287 H         1 <0>         0.3944
@<TRIPOS>BOND
     1    1    3 ar
     2    1    5 ar
     3    2    4 ar
     4    2    5 ar
     5    3    6 ar
     6    4    6 ar
     7    5   21 1
     8    6   40 1
     9    7   15 1
    10    7   34 am
    11    7   37 2
    12    8   27 1
    13    8   31 am
    14    8   38 2
    15    9   28 1
    16    9   35 am
    17    9   39 2
    18   10   32 1
    19   10   33 1
    20   10   36 1
    21   11   12 1
    22   11   16 1
    23   12   18 1
    24   13   15 1
    25   13   16 1
    26   14   17 1
    27   14   18 1
    28   15   31 1
    29   16   17 1
    30   17   31 1
    31   18   41 1
    32   19   29 1
    33   20   29 1
    34   21   28 1
    35   22   23 1
    36   22   25 1
    37   23   30 1
    38   24   27 1
    39   24   29 1
    40   25   36 1
    41   26   30 1
    42   26   42 1
    43   27   35 1
    44   28   43 1
    45   30   34 1
    46    1   44 1
    47    2   45 1
    48    3   46 1
    49    4   47 1
    50   11   48 1
    51   11   49 1
    52   12   50 1
    53   12   51 1
    54   13   52 1
    55   13   53 1
    56   14   54 1
    57   14   55 1
    58   15   56 1
    59   16   57 1
    60   17   58 1
    61   18   59 1
    62   19   60 1
    63   19   61 1
    64   19   62 1
    65   20   63 1
    66   20   64 1
    67   20   65 1
    68   21   66 1
    69   21   67 1
    70   22   68 1
    71   22   69 1
    72   23   70 1
    73   23   71 1
    74   24   72 1
    75   24   73 1
    76   25   74 1
    77   25   75 1
    78   26   76 1
    79   26   77 1
    80   27   78 1
    81   28   79 1
    82   29   80 1
    83   30   81 1
    84   32   82 1
    85   32   83 1
    86   33   84 1
    87   33   85 1
    88   34   86 1
    89   35   87 1
    90   36   88 1
    91   40   89 1
    92   41   90 1
    93   42   91 1
    94   43   92 1
@<TRIPOS>MOLECULE
1a2c_ligand_223
   92    94     0     0     0
SMALL
USER_CHARGES

mmff94s_NoEstat = 121.52
@<TRIPOS>ATOM
      1 C1         -4.0924   -6.1062   -2.0965 C.ar      1 <0>        -0.0708
      2 C2         -5.0027   -5.0910   -0.1021 C.ar      1 <0>        -0.0872
      3 C3         -3.8731   -7.2908   -1.3934 C.ar      1 <0>        -0.2241
      4 C4         -4.7835   -6.2756    0.6010 C.ar      1 <0>        -0.1600
      5 C5         -4.6543   -5.0223   -1.4414 C.ar      1 <0>        -0.1356
      6 C6         -4.2186   -7.3755   -0.0446 C.ar      1 <0>         0.1290
      7 C7         -0.0512   -1.0561    0.2993 C.2       1 <0>         0.6664
      8 C8         -1.8469   -3.0457    2.1630 C.2       1 <0>         0.6651
      9 C9         -3.6974   -2.0123   -0.8263 C.2       1 <0>         0.6454
     10 C10        -2.6672    5.4277   -0.3386 C.cat     1 <0>         0.6349
     11 C11         2.5186   -3.1911    0.6823 C.3       1 <0>        -0.0642
     12 C12         2.4580   -4.6414    0.2376 C.3       1 <0>        -0.0747
     13 C13         1.4874   -1.4827    2.2418 C.3       1 <0>        -0.0873
     14 C14         0.4946   -5.0934    1.7133 C.3       1 <0>        -0.1371
     15 C15         0.0412   -1.4176    1.7503 C.3       1 <0>         0.0360
     16 C16         1.8865   -2.9529    2.0632 C.3       1 <0>        -0.0720
     17 C17         0.5665   -3.7001    2.3454 C.3       1 <0>         0.1201
     18 C18         1.0248   -5.1525    0.2868 C.3       1 <0>         0.1453
     19 C19        -3.4345   -0.1597    3.7904 C.3       1 <0>        -0.0968
     20 C20        -3.1391   -2.5257    4.5483 C.3       1 <0>        -0.0986
     21 C21        -4.8923   -3.7401   -2.2028 C.3       1 <0>        -0.0191
     22 C22        -1.8968    1.7896   -1.0188 C.3       1 <0>        -0.1009
     23 C23        -0.4337    2.0012   -1.4250 C.3       1 <0>        -0.0942
     24 C24        -4.1436   -2.0954    2.2850 C.3       1 <0>        -0.0988
     25 C25        -2.7062    3.0733   -1.1890 C.3       1 <0>         0.1966
     26 C26         1.9058    0.9774   -1.7696 C.3       1 <0>         0.1128
     27 C27        -2.8325   -2.1090    1.5076 C.3       1 <0>         0.0786
     28 C28        -3.6869   -2.7967   -2.1325 C.3       1 <0>         0.0744
     29 C29        -4.0154   -1.5731    3.7302 C.3       1 <0>        -0.0678
     30 C30         0.4555    0.7445   -1.3388 C.3       1 <0>         0.1065
     31 N1         -0.4979   -2.7598    1.9615 N.am      1 <0>        -0.4315
     32 N2         -2.0958    6.4072    0.4670 N.pl3     1 <0>        -0.8671
     33 N3         -3.7703    5.7519   -1.1209 N.pl3     1 <0>        -0.8581
     34 N4          0.4455    0.1980   -0.0008 N.am      1 <0>        -0.5687
     35 N5         -2.9650   -2.6361    0.1813 N.am      1 <0>        -0.5746
     36 N6         -2.1460    4.1226   -0.3710 N.pl3     1 <0>        -0.7533
     37 O1         -0.5362   -1.8555   -0.4928 O.2       1 <0>        -0.5843
     38 O2         -2.2659   -3.9924    2.8322 O.2       1 <0>        -0.6812
     39 O3         -4.3065   -0.9527   -0.6974 O.2       1 <0>        -0.5788
     40 O4         -4.0062   -8.5320    0.6410 O.3       1 <0>        -0.4938
     41 O5          0.9879   -6.5072   -0.1510 O.3       1 <0>        -0.6030
     42 O6          2.5087    1.9525   -0.9290 O.3       1 <0>        -0.5860
     43 O7         -3.7616   -1.8713   -3.2074 O.3       1 <0>        -0.6021
     44 H1         -3.8198   -6.0497   -3.1468 H         1 <0>         0.1412
     45 H2         -5.4436   -4.2391    0.4091 H         1 <0>         0.1451
     46 H3         -3.4330   -8.1441   -1.9019 H         1 <0>         0.1336
     47 H4         -5.0556   -6.3357    1.6515 H         1 <0>         0.1567
     48 H5          3.5627   -2.8549    0.7003 H         1 <0>         0.0649
     49 H6          2.0259   -2.5829   -0.0837 H         1 <0>         0.0476
     50 H7          2.8567   -4.7427   -0.7790 H         1 <0>         0.0641
     51 H8          3.1032   -5.2618    0.8729 H         1 <0>         0.0484
     52 H9          2.1569   -0.7868    1.7257 H         1 <0>         0.0596
     53 H10         1.5124   -1.2395    3.3116 H         1 <0>         0.0757
     54 H11         1.0921   -5.7802    2.3299 H         1 <0>         0.0782
     55 H12        -0.5175   -5.5090    1.7393 H         1 <0>         0.0812
     56 H13        -0.5378   -0.6778    2.3126 H         1 <0>         0.0731
     57 H14         2.6304   -3.2407    2.8169 H         1 <0>         0.0511
     58 H15         0.4523   -3.8218    3.4319 H         1 <0>         0.0753
     59 H16         0.3841   -4.5700   -0.3844 H         1 <0>         0.0427
     60 H17        -3.2863    0.1550    4.8292 H         1 <0>         0.0450
     61 H18        -4.1066    0.5680    3.3260 H         1 <0>         0.0406
     62 H19        -2.4667   -0.1061    3.2804 H         1 <0>         0.0274
     63 H20        -2.1236   -2.5806    4.1412 H         1 <0>         0.0476
     64 H21        -3.0691   -2.1929    5.5894 H         1 <0>         0.0170
     65 H22        -3.5594   -3.5370    4.5502 H         1 <0>         0.0477
     66 H23        -5.7841   -3.2421   -1.7993 H         1 <0>         0.0814
     67 H24        -5.1367   -3.9958   -3.2415 H         1 <0>         0.0685
     68 H25        -2.3478    0.9988   -1.6296 H         1 <0>         0.1016
     69 H26        -1.9571    1.4582    0.0248 H         1 <0>         0.0660
     70 H27         0.0021    2.7844   -0.7898 H         1 <0>         0.0512
     71 H28        -0.4008    2.3932   -2.4497 H         1 <0>         0.0454
     72 H29        -4.5642   -3.1100    2.3009 H         1 <0>         0.0575
     73 H30        -4.8775   -1.4748    1.7520 H         1 <0>         0.0743
     74 H31        -3.7481    2.9073   -0.8955 H         1 <0>         0.0662
     75 H32        -2.7006    3.3948   -2.2356 H         1 <0>         0.0622
     76 H33         1.9749    1.3199   -2.8074 H         1 <0>         0.0321
     77 H34         2.4858    0.0519   -1.6791 H         1 <0>         0.0204
     78 H35        -2.3644   -1.1272    1.4485 H         1 <0>         0.0749
     79 H36        -2.7406   -3.3442   -2.2154 H         1 <0>         0.0719
     80 H37        -5.0090   -1.5561    4.1946 H         1 <0>         0.0609
     81 H38         0.0149    0.0012   -2.0158 H         1 <0>         0.1063
     82 H39        -1.2903    6.2156    1.0567 H         1 <0>         0.4792
     83 H40        -2.4745    7.3512    0.4899 H         1 <0>         0.4819
     84 H41        -4.2125    5.0601   -1.7212 H         1 <0>         0.4802
     85 H42        -4.1632    6.6901   -1.1140 H         1 <0>         0.4826
     86 H43         0.8216    0.7626    0.7549 H         1 <0>         0.3101
     87 H44        -2.4970   -3.5171   -0.0370 H         1 <0>         0.3087
     88 H45        -1.3309    3.9380    0.2262 H         1 <0>         0.4846
     89 H46        -3.2195   -8.9860    0.2991 H         1 <0>         0.4194
     90 H47         1.8515   -6.8926    0.0654 H         1 <0>         0.4036
     91 H48         2.2238    2.8203   -1.2580 H         1 <0>         0.4114
     92 H49        -4.4012   -2.2307   -3.8437 H         1 <0>         0.3944
@<TRIPOS>BOND
     1    1    3 ar
     2    1    5 ar
     3    2    4 ar
     4    2    5 ar
     5    3    6 ar
     6    4    6 ar
     7    5   21 1
     8    6   40 1
     9    7   15 1
    10    7   34 am
    11    7   37 2
    12    8   27 1
    13    8   31 am
    14    8   38 2
    15    9   28 1
    16    9   35 am
    17    9   39 2
    18   10   32 1
    19   10   33 1
    20   10   36 1
    21   11   12 1
    22   11   16 1
    23   12   18 1
    24   13   15 1
    25   13   16 1
    26   14   17 1
    27   14   18 1
    28   15   31 1
    29   16   17 1
    30   17   31 1
    31   18   41 1
    32   19   29 1
    33   20   29 1
    34   21   28 1
    35   22   23 1
    36   22   25 1
    37   23   30 1
    38   24   27 1
    39   24   29 1
    40   25   36 1
    41   26   30 1
    42   26   42 1
    43   27   35 1
    44   28   43 1
    45   30   34 1
    46    1   44 1
    47    2   45 1
    48    3   46 1
    49    4   47 1
    50   11   48 1
    51   11   49 1
    52   12   50 1
    53   12   51 1
    54   13   52 1
    55   13   53 1
    56   14   54 1
    57   14   55 1
    58   15   56 1
    59   16   57 1
    60   17   58 1
    61   18   59 1
    62   19   60 1
    63   19   61 1
    64   19   62 1
    65   20   63 1
    66   20   64 1
    67   20   65 1
    68   21   66 1
    69   21   67 1
    70   22   68 1
    71   22   69 1
    72   23   70 1
    73   23   71 1
    74   24   72 1
    75   24   73 1
    76   25   74 1
    77   25   75 1
    78   26   76 1
    79   26   77 1
    80   27   78 1
    81   28   79 1
    82   29   80 1
    83   30   81 1
    84   32   82 1
    85   32   83 1
    86   33   84 1
    87   33   85 1
    88   34   86 1
    89   35   87 1
    90   36   88 1
    91   40   89 1
    92   41   90 1
    93   42   91 1
    94   43   92 1
@<TRIPOS>MOLECULE
1a2c_ligand_224
   92    94     0     0     0
SMALL
USER_CHARGES

mmff94s_NoEstat = 121.61
@<TRIPOS>ATOM
      1 C1         -6.7567   -4.6738   -3.5933 C.ar      1 <0>        -0.0708
      2 C2         -7.3456   -4.9208   -1.2633 C.ar      1 <0>        -0.0872
      3 C3         -7.6642   -5.6785   -3.9292 C.ar      1 <0>        -0.2241
      4 C4         -8.2530   -5.9255   -1.5991 C.ar      1 <0>        -0.1600
      5 C5         -6.6096   -4.3084   -2.2649 C.ar      1 <0>        -0.1356
      6 C6         -8.4124   -6.3044   -2.9320 C.ar      1 <0>         0.1290
      7 C7         -0.0512   -1.0561    0.2993 C.2       1 <0>         0.6664
      8 C8         -1.8469   -3.0457    2.1630 C.2       1 <0>         0.6651
      9 C9         -3.4040   -2.7670   -0.8258 C.2       1 <0>         0.6454
     10 C10        -2.2504    1.9345   -6.0562 C.cat     1 <0>         0.6349
     11 C11         2.5186   -3.1911    0.6823 C.3       1 <0>        -0.0642
     12 C12         2.4580   -4.6414    0.2376 C.3       1 <0>        -0.0747
     13 C13         1.4874   -1.4827    2.2418 C.3       1 <0>        -0.0873
     14 C14         0.4946   -5.0934    1.7133 C.3       1 <0>        -0.1371
     15 C15         0.0412   -1.4176    1.7503 C.3       1 <0>         0.0360
     16 C16         1.8865   -2.9529    2.0632 C.3       1 <0>        -0.0720
     17 C17         0.5665   -3.7001    2.3454 C.3       1 <0>         0.1201
     18 C18         1.0248   -5.1525    0.2868 C.3       1 <0>         0.1453
     19 C19        -5.7275   -1.2982    0.9287 C.3       1 <0>        -0.0968
     20 C20        -4.2097    0.6462    1.3473 C.3       1 <0>        -0.0986
     21 C21        -5.6277   -3.2203   -1.9015 C.3       1 <0>        -0.0191
     22 C22        -0.5396    2.6263   -2.8210 C.3       1 <0>        -0.1009
     23 C23        -0.4337    2.0012   -1.4250 C.3       1 <0>        -0.0942
     24 C24        -3.7699   -1.5150    2.5525 C.3       1 <0>        -0.0988
     25 C25        -1.1768    1.6547   -3.8119 C.3       1 <0>         0.1966
     26 C26         1.9058    0.9774   -1.7696 C.3       1 <0>         0.1128
     27 C27        -2.8325   -2.1090    1.5076 C.3       1 <0>         0.0786
     28 C28        -4.2317   -3.7794   -1.6077 C.3       1 <0>         0.0744
     29 C29        -4.8597   -0.5919    1.9712 C.3       1 <0>        -0.0678
     30 C30         0.4555    0.7445   -1.3388 C.3       1 <0>         0.1065
     31 N1         -0.4979   -2.7598    1.9615 N.am      1 <0>        -0.4315
     32 N2         -2.2890    2.5482   -7.3039 N.pl3     1 <0>        -0.8671
     33 N3         -3.2134    0.9829   -5.7387 N.pl3     1 <0>        -0.8581
     34 N4          0.4455    0.1980   -0.0008 N.am      1 <0>        -0.5687
     35 N5         -3.5026   -2.9419    0.5527 N.am      1 <0>        -0.5746
     36 N6         -1.2558    2.2629   -5.1188 N.pl3     1 <0>        -0.7533
     37 O1         -0.5362   -1.8555   -0.4928 O.2       1 <0>        -0.5843
     38 O2         -2.2659   -3.9924    2.8322 O.2       1 <0>        -0.6812
     39 O3         -2.7407   -1.8909   -1.3761 O.2       1 <0>        -0.5788
     40 O4         -9.2991   -7.2836   -3.2599 O.3       1 <0>        -0.4938
     41 O5          0.9879   -6.5072   -0.1510 O.3       1 <0>        -0.6030
     42 O6          2.6391   -0.2366   -1.6731 O.3       1 <0>        -0.5860
     43 O7         -3.5703   -4.0395   -2.8375 O.3       1 <0>        -0.6021
     44 H1         -6.1783   -4.1922   -4.3770 H         1 <0>         0.1412
     45 H2         -7.2282   -4.6319   -0.2220 H         1 <0>         0.1451
     46 H3         -7.7839   -5.9690   -4.9692 H         1 <0>         0.1336
     47 H4         -8.8337   -6.4088   -0.8178 H         1 <0>         0.1567
     48 H5          3.5627   -2.8549    0.7003 H         1 <0>         0.0649
     49 H6          2.0259   -2.5829   -0.0837 H         1 <0>         0.0476
     50 H7          2.8567   -4.7427   -0.7790 H         1 <0>         0.0641
     51 H8          3.1032   -5.2618    0.8729 H         1 <0>         0.0484
     52 H9          2.1569   -0.7868    1.7257 H         1 <0>         0.0596
     53 H10         1.5124   -1.2395    3.3116 H         1 <0>         0.0757
     54 H11         1.0921   -5.7802    2.3299 H         1 <0>         0.0782
     55 H12        -0.5175   -5.5090    1.7393 H         1 <0>         0.0812
     56 H13        -0.5378   -0.6778    2.3126 H         1 <0>         0.0731
     57 H14         2.6304   -3.2407    2.8169 H         1 <0>         0.0511
     58 H15         0.4523   -3.8218    3.4319 H         1 <0>         0.0753
     59 H16         0.3841   -4.5700   -0.3844 H         1 <0>         0.0427
     60 H17        -6.4424   -0.5993    0.4810 H         1 <0>         0.0450
     61 H18        -6.3080   -2.1101    1.3767 H         1 <0>         0.0406
     62 H19        -5.1167   -1.7184    0.1225 H         1 <0>         0.0274
     63 H20        -3.5507    0.3732    0.5159 H         1 <0>         0.0476
     64 H21        -4.9709    1.3343    0.9644 H         1 <0>         0.0170
     65 H22        -3.6139    1.1889    2.0888 H         1 <0>         0.0477
     66 H23        -6.0051   -2.6719   -1.0280 H         1 <0>         0.0814
     67 H24        -5.5997   -2.4925   -2.7222 H         1 <0>         0.0685
     68 H25        -1.1414    3.5417   -2.7803 H         1 <0>         0.1016
     69 H26         0.4540    2.9154   -3.1840 H         1 <0>         0.0660
     70 H27        -1.4419    1.7433   -1.0734 H         1 <0>         0.0512
     71 H28        -0.0553    2.7561   -0.7237 H         1 <0>         0.0454
     72 H29        -3.1790   -0.9587    3.2928 H         1 <0>         0.0575
     73 H30        -4.2588   -2.3274    3.1083 H         1 <0>         0.0743
     74 H31        -2.1847    1.3818   -3.4817 H         1 <0>         0.0662
     75 H32        -0.5869    0.7349   -3.8810 H         1 <0>         0.0622
     76 H33         2.4001    1.7344   -1.1517 H         1 <0>         0.0321
     77 H34         1.9468    1.3120   -2.8125 H         1 <0>         0.0204
     78 H35        -2.2612   -1.3523    0.9714 H         1 <0>         0.0749
     79 H36        -4.2834   -4.7163   -1.0404 H         1 <0>         0.0719
     80 H37        -5.5109   -0.2494    2.7849 H         1 <0>         0.0609
     81 H38         0.0149    0.0012   -2.0158 H         1 <0>         0.1063
     82 H39        -1.6075    3.2504   -7.5789 H         1 <0>         0.4792
     83 H40        -3.0099    2.3099   -7.9812 H         1 <0>         0.4819
     84 H41        -3.2146    0.5150   -4.8355 H         1 <0>         0.4802
     85 H42        -3.9416    0.7289   -6.4020 H         1 <0>         0.4826
     86 H43         0.8216    0.7626    0.7549 H         1 <0>         0.3101
     87 H44        -4.0841   -3.7053    0.9020 H         1 <0>         0.3087
     88 H45        -0.5698    2.9718   -5.4052 H         1 <0>         0.4846
     89 H46        -8.9810   -7.7812   -4.0301 H         1 <0>         0.4194
     90 H47         1.8515   -6.8926    0.0654 H         1 <0>         0.4036
     91 H48         2.8853   -0.3414   -0.7399 H         1 <0>         0.4114
     92 H49        -4.2525   -4.0407   -3.5287 H         1 <0>         0.3944
@<TRIPOS>BOND
     1    1    3 ar
     2    1    5 ar
     3    2    4 ar
     4    2    5 ar
     5    3    6 ar
     6    4    6 ar
     7    5   21 1
     8    6   40 1
     9    7   15 1
    10    7   34 am
    11    7   37 2
    12    8   27 1
    13    8   31 am
    14    8   38 2
    15    9   28 1
    16    9   35 am
    17    9   39 2
    18   10   32 1
    19   10   33 1
    20   10   36 1
    21   11   12 1
    22   11   16 1
    23   12   18 1
    24   13   15 1
    25   13   16 1
    26   14   17 1
    27   14   18 1
    28   15   31 1
    29   16   17 1
    30   17   31 1
    31   18   41 1
    32   19   29 1
    33   20   29 1
    34   21   28 1
    35   22   23 1
    36   22   25 1
    37   23   30 1
    38   24   27 1
    39   24   29 1
    40   25   36 1
    41   26   30 1
    42   26   42 1
    43   27   35 1
    44   28   43 1
    45   30   34 1
    46    1   44 1
    47    2   45 1
    48    3   46 1
    49    4   47 1
    50   11   48 1
    51   11   49 1
    52   12   50 1
    53   12   51 1
    54   13   52 1
    55   13   53 1
    56   14   54 1
    57   14   55 1
    58   15   56 1
    59   16   57 1
    60   17   58 1
    61   18   59 1
    62   19   60 1
    63   19   61 1
    64   19   62 1
    65   20   63 1
    66   20   64 1
    67   20   65 1
    68   21   66 1
    69   21   67 1
    70   22   68 1
    71   22   69 1
    72   23   70 1
    73   23   71 1
    74   24   72 1
    75   24   73 1
    76   25   74 1
    77   25   75 1
    78   26   76 1
    79   26   77 1
    80   27   78 1
    81   28   79 1
    82   29   80 1
    83   30   81 1
    84   32   82 1
    85   32   83 1
    86   33   84 1
    87   33   85 1
    88   34   86 1
    89   35   87 1
    90   36   88 1
    91   40   89 1
    92   41   90 1
    93   42   91 1
    94   43   92 1
@<TRIPOS>MOLECULE
1a2c_ligand_225
   92    94     0     0     0
SMALL
USER_CHARGES

mmff94s_NoEstat = 121.67
@<TRIPOS>ATOM
      1 C1         -4.0924   -6.1062   -2.0965 C.ar      1 <0>        -0.0708
      2 C2         -5.0027   -5.0910   -0.1021 C.ar      1 <0>        -0.0872
      3 C3         -3.8731   -7.2908   -1.3934 C.ar      1 <0>        -0.2241
      4 C4         -4.7835   -6.2756    0.6010 C.ar      1 <0>        -0.1600
      5 C5         -4.6543   -5.0223   -1.4414 C.ar      1 <0>        -0.1356
      6 C6         -4.2186   -7.3755   -0.0446 C.ar      1 <0>         0.1290
      7 C7         -0.0512   -1.0561    0.2993 C.2       1 <0>         0.6664
      8 C8         -1.8469   -3.0457    2.1630 C.2       1 <0>         0.6651
      9 C9         -3.6974   -2.0123   -0.8263 C.2       1 <0>         0.6454
     10 C10        -3.3294    2.0808   -3.5565 C.cat     1 <0>         0.6349
     11 C11         2.5186   -3.1911    0.6823 C.3       1 <0>        -0.0642
     12 C12         2.4580   -4.6414    0.2376 C.3       1 <0>        -0.0747
     13 C13         1.4874   -1.4827    2.2418 C.3       1 <0>        -0.0873
     14 C14         0.4946   -5.0934    1.7133 C.3       1 <0>        -0.1371
     15 C15         0.0412   -1.4176    1.7503 C.3       1 <0>         0.0360
     16 C16         1.8865   -2.9529    2.0632 C.3       1 <0>        -0.0720
     17 C17         0.5665   -3.7001    2.3454 C.3       1 <0>         0.1201
     18 C18         1.0248   -5.1525    0.2868 C.3       1 <0>         0.1453
     19 C19        -3.4345   -0.1597    3.7904 C.3       1 <0>        -0.0968
     20 C20        -3.1391   -2.5257    4.5483 C.3       1 <0>        -0.0986
     21 C21        -4.8923   -3.7401   -2.2028 C.3       1 <0>        -0.0191
     22 C22        -1.0374    2.7415   -0.6235 C.3       1 <0>        -0.1009
     23 C23         0.2513    2.2726   -1.3090 C.3       1 <0>        -0.0942
     24 C24        -4.1436   -2.0954    2.2850 C.3       1 <0>        -0.0988
     25 C25        -2.2684    2.1304   -1.2894 C.3       1 <0>         0.1966
     26 C26         1.7383    0.3016   -2.0469 C.3       1 <0>         0.1128
     27 C27        -2.8325   -2.1090    1.5076 C.3       1 <0>         0.0786
     28 C28        -3.6869   -2.7967   -2.1325 C.3       1 <0>         0.0744
     29 C29        -4.0154   -1.5731    3.7302 C.3       1 <0>        -0.0678
     30 C30         0.4555    0.7445   -1.3388 C.3       1 <0>         0.1065
     31 N1         -0.4979   -2.7598    1.9615 N.am      1 <0>        -0.4315
     32 N2         -3.3390    2.4766   -4.8899 N.pl3     1 <0>        -0.8671
     33 N3         -4.3382    1.2447   -3.0902 N.pl3     1 <0>        -0.8581
     34 N4          0.4455    0.1980   -0.0008 N.am      1 <0>        -0.5687
     35 N5         -2.9650   -2.6361    0.1813 N.am      1 <0>        -0.5746
     36 N6         -2.3186    2.5130   -2.6805 N.pl3     1 <0>        -0.7533
     37 O1         -0.5362   -1.8555   -0.4928 O.2       1 <0>        -0.5843
     38 O2         -2.2659   -3.9924    2.8322 O.2       1 <0>        -0.6812
     39 O3         -4.3065   -0.9527   -0.6974 O.2       1 <0>        -0.5788
     40 O4         -4.0062   -8.5320    0.6410 O.3       1 <0>        -0.4938
     41 O5          0.9879   -6.5072   -0.1510 O.3       1 <0>        -0.6030
     42 O6          2.8703    0.8436   -1.3793 O.3       1 <0>        -0.5860
     43 O7         -3.7616   -1.8713   -3.2074 O.3       1 <0>        -0.6021
     44 H1         -3.8198   -6.0497   -3.1468 H         1 <0>         0.1412
     45 H2         -5.4436   -4.2391    0.4091 H         1 <0>         0.1451
     46 H3         -3.4330   -8.1441   -1.9019 H         1 <0>         0.1336
     47 H4         -5.0556   -6.3357    1.6515 H         1 <0>         0.1567
     48 H5          3.5627   -2.8549    0.7003 H         1 <0>         0.0649
     49 H6          2.0259   -2.5829   -0.0837 H         1 <0>         0.0476
     50 H7          2.8567   -4.7427   -0.7790 H         1 <0>         0.0641
     51 H8          3.1032   -5.2618    0.8729 H         1 <0>         0.0484
     52 H9          2.1569   -0.7868    1.7257 H         1 <0>         0.0596
     53 H10         1.5124   -1.2395    3.3116 H         1 <0>         0.0757
     54 H11         1.0921   -5.7802    2.3299 H         1 <0>         0.0782
     55 H12        -0.5175   -5.5090    1.7393 H         1 <0>         0.0812
     56 H13        -0.5378   -0.6778    2.3126 H         1 <0>         0.0731
     57 H14         2.6304   -3.2407    2.8169 H         1 <0>         0.0511
     58 H15         0.4523   -3.8218    3.4319 H         1 <0>         0.0753
     59 H16         0.3841   -4.5700   -0.3844 H         1 <0>         0.0427
     60 H17        -3.2863    0.1550    4.8292 H         1 <0>         0.0450
     61 H18        -4.1066    0.5680    3.3260 H         1 <0>         0.0406
     62 H19        -2.4667   -0.1061    3.2804 H         1 <0>         0.0274
     63 H20        -2.1236   -2.5806    4.1412 H         1 <0>         0.0476
     64 H21        -3.0691   -2.1929    5.5894 H         1 <0>         0.0170
     65 H22        -3.5594   -3.5370    4.5502 H         1 <0>         0.0477
     66 H23        -5.7841   -3.2421   -1.7993 H         1 <0>         0.0814
     67 H24        -5.1367   -3.9958   -3.2415 H         1 <0>         0.0685
     68 H25        -1.0263    2.4588    0.4356 H         1 <0>         0.1016
     69 H26        -1.1105    3.8350   -0.6596 H         1 <0>         0.0660
     70 H27         1.1110    2.7323   -0.8028 H         1 <0>         0.0512
     71 H28         0.2685    2.6560   -2.3373 H         1 <0>         0.0454
     72 H29        -4.5642   -3.1100    2.3009 H         1 <0>         0.0575
     73 H30        -4.8775   -1.4748    1.7520 H         1 <0>         0.0743
     74 H31        -3.1804    2.4738   -0.7898 H         1 <0>         0.0662
     75 H32        -2.2399    1.0381   -1.2201 H         1 <0>         0.0622
     76 H33         1.7614    0.6251   -3.0928 H         1 <0>         0.0321
     77 H34         1.8289   -0.7905   -2.0281 H         1 <0>         0.0204
     78 H35        -2.3644   -1.1272    1.4485 H         1 <0>         0.0749
     79 H36        -2.7406   -3.3442   -2.2154 H         1 <0>         0.0719
     80 H37        -5.0090   -1.5561    4.1946 H         1 <0>         0.0609
     81 H38        -0.3978    0.3245   -1.8868 H         1 <0>         0.1063
     82 H39        -2.6237    3.0881   -5.2742 H         1 <0>         0.4792
     83 H40        -4.0716    2.1635   -5.5226 H         1 <0>         0.4819
     84 H41        -4.3615    0.9362   -2.1213 H         1 <0>         0.4802
     85 H42        -5.0788    0.9188   -3.7066 H         1 <0>         0.4826
     86 H43         0.8216    0.7626    0.7549 H         1 <0>         0.3101
     87 H44        -2.4970   -3.5171   -0.0370 H         1 <0>         0.3087
     88 H45        -1.5986    3.1289   -3.0773 H         1 <0>         0.4846
     89 H46        -3.2195   -8.9860    0.2991 H         1 <0>         0.4194
     90 H47         1.8515   -6.8926    0.0654 H         1 <0>         0.4036
     91 H48         2.9636    1.7601   -1.6856 H         1 <0>         0.4114
     92 H49        -4.4012   -2.2307   -3.8437 H         1 <0>         0.3944
@<TRIPOS>BOND
     1    1    3 ar
     2    1    5 ar
     3    2    4 ar
     4    2    5 ar
     5    3    6 ar
     6    4    6 ar
     7    5   21 1
     8    6   40 1
     9    7   15 1
    10    7   34 am
    11    7   37 2
    12    8   27 1
    13    8   31 am
    14    8   38 2
    15    9   28 1
    16    9   35 am
    17    9   39 2
    18   10   32 1
    19   10   33 1
    20   10   36 1
    21   11   12 1
    22   11   16 1
    23   12   18 1
    24   13   15 1
    25   13   16 1
    26   14   17 1
    27   14   18 1
    28   15   31 1
    29   16   17 1
    30   17   31 1
    31   18   41 1
    32   19   29 1
    33   20   29 1
    34   21   28 1
    35   22   23 1
    36   22   25 1
    37   23   30 1
    38   24   27 1
    39   24   29 1
    40   25   36 1
    41   26   30 1
    42   26   42 1
    43   27   35 1
    44   28   43 1
    45   30   34 1
    46    1   44 1
    47    2   45 1
    48    3   46 1
    49    4   47 1
    50   11   48 1
    51   11   49 1
    52   12   50 1
    53   12   51 1
    54   13   52 1
    55   13   53 1
    56   14   54 1
    57   14   55 1
    58   15   56 1
    59   16   57 1
    60   17   58 1
    61   18   59 1
    62   19   60 1
    63   19   61 1
    64   19   62 1
    65   20   63 1
    66   20   64 1
    67   20   65 1
    68   21   66 1
    69   21   67 1
    70   22   68 1
    71   22   69 1
    72   23   70 1
    73   23   71 1
    74   24   72 1
    75   24   73 1
    76   25   74 1
    77   25   75 1
    78   26   76 1
    79   26   77 1
    80   27   78 1
    81   28   79 1
    82   29   80 1
    83   30   81 1
    84   32   82 1
    85   32   83 1
    86   33   84 1
    87   33   85 1
    88   34   86 1
    89   35   87 1
    90   36   88 1
    91   40   89 1
    92   41   90 1
    93   42   91 1
    94   43   92 1
@<TRIPOS>MOLECULE
1a2c_ligand_226
   92    94     0     0     0
SMALL
USER_CHARGES

mmff94s_NoEstat = 121.86
@<TRIPOS>ATOM
      1 C1         -5.7422   -5.3815   -1.6705 C.ar      1 <0>        -0.0708
      2 C2         -6.5525   -3.4058   -0.5402 C.ar      1 <0>        -0.0872
      3 C3         -6.3995   -6.1843   -0.7383 C.ar      1 <0>        -0.2241
      4 C4         -7.2098   -4.2087    0.3920 C.ar      1 <0>        -0.1600
      5 C5         -5.8276   -4.0030   -1.5590 C.ar      1 <0>        -0.1356
      6 C6         -7.1333   -5.5980    0.2930 C.ar      1 <0>         0.1290
      7 C7         -0.0512   -1.0561    0.2993 C.2       1 <0>         0.6664
      8 C8         -1.8469   -3.0457    2.1630 C.2       1 <0>         0.6651
      9 C9         -3.6974   -2.0123   -0.8263 C.2       1 <0>         0.6454
     10 C10        -5.0538    3.8595   -0.8167 C.cat     1 <0>         0.6349
     11 C11         2.5186   -3.1911    0.6823 C.3       1 <0>        -0.0642
     12 C12         2.4580   -4.6414    0.2376 C.3       1 <0>        -0.0747
     13 C13         1.4874   -1.4827    2.2418 C.3       1 <0>        -0.0873
     14 C14         0.4946   -5.0934    1.7133 C.3       1 <0>        -0.1371
     15 C15         0.0412   -1.4176    1.7503 C.3       1 <0>         0.0360
     16 C16         1.8865   -2.9529    2.0632 C.3       1 <0>        -0.0720
     17 C17         0.5665   -3.7001    2.3454 C.3       1 <0>         0.1201
     18 C18         1.0248   -5.1525    0.2868 C.3       1 <0>         0.1453
     19 C19        -3.4345   -0.1597    3.7904 C.3       1 <0>        -0.0968
     20 C20        -3.1391   -2.5257    4.5483 C.3       1 <0>        -0.0986
     21 C21        -5.1165   -3.1339   -2.5686 C.3       1 <0>        -0.0191
     22 C22        -1.8968    1.7896   -1.0188 C.3       1 <0>        -0.1009
     23 C23        -0.4337    2.0012   -1.4250 C.3       1 <0>        -0.0942
     24 C24        -4.1436   -2.0954    2.2850 C.3       1 <0>        -0.0988
     25 C25        -2.7062    3.0733   -1.1890 C.3       1 <0>         0.1966
     26 C26         1.9058    0.9774   -1.7696 C.3       1 <0>         0.1128
     27 C27        -2.8325   -2.1090    1.5076 C.3       1 <0>         0.0786
     28 C28        -3.6869   -2.7967   -2.1325 C.3       1 <0>         0.0744
     29 C29        -4.0154   -1.5731    3.7302 C.3       1 <0>        -0.0678
     30 C30         0.4555    0.7445   -1.3388 C.3       1 <0>         0.1065
     31 N1         -0.4979   -2.7598    1.9615 N.am      1 <0>        -0.4315
     32 N2         -6.3630    3.5983   -0.4259 N.pl3     1 <0>        -0.8671
     33 N3         -4.7148    5.1409   -1.2376 N.pl3     1 <0>        -0.8581
     34 N4          0.4455    0.1980   -0.0008 N.am      1 <0>        -0.5687
     35 N5         -2.9650   -2.6361    0.1813 N.am      1 <0>        -0.5746
     36 N6         -4.0759    2.8502   -0.7911 N.pl3     1 <0>        -0.7533
     37 O1         -0.5362   -1.8555   -0.4928 O.2       1 <0>        -0.5843
     38 O2         -2.2659   -3.9924    2.8322 O.2       1 <0>        -0.6812
     39 O3         -4.3065   -0.9527   -0.6974 O.2       1 <0>        -0.5788
     40 O4         -7.7760   -6.3814    1.2017 O.3       1 <0>        -0.4938
     41 O5          0.9879   -6.5072   -0.1510 O.3       1 <0>        -0.6030
     42 O6          2.6391   -0.2366   -1.6731 O.3       1 <0>        -0.5860
     43 O7         -3.0778   -1.9902   -3.1305 O.3       1 <0>        -0.6021
     44 H1         -5.1729   -5.8474   -2.4702 H         1 <0>         0.1412
     45 H2         -6.6178   -2.3242   -0.4555 H         1 <0>         0.1451
     46 H3         -6.3363   -7.2658   -0.8208 H         1 <0>         0.1336
     47 H4         -7.7807   -3.7459    1.1926 H         1 <0>         0.1567
     48 H5          3.5627   -2.8549    0.7003 H         1 <0>         0.0649
     49 H6          2.0259   -2.5829   -0.0837 H         1 <0>         0.0476
     50 H7          2.8567   -4.7427   -0.7790 H         1 <0>         0.0641
     51 H8          3.1032   -5.2618    0.8729 H         1 <0>         0.0484
     52 H9          2.1569   -0.7868    1.7257 H         1 <0>         0.0596
     53 H10         1.5124   -1.2395    3.3116 H         1 <0>         0.0757
     54 H11         1.0921   -5.7802    2.3299 H         1 <0>         0.0782
     55 H12        -0.5175   -5.5090    1.7393 H         1 <0>         0.0812
     56 H13        -0.5378   -0.6778    2.3126 H         1 <0>         0.0731
     57 H14         2.6304   -3.2407    2.8169 H         1 <0>         0.0511
     58 H15         0.4523   -3.8218    3.4319 H         1 <0>         0.0753
     59 H16         0.3841   -4.5700   -0.3844 H         1 <0>         0.0427
     60 H17        -3.2863    0.1550    4.8292 H         1 <0>         0.0450
     61 H18        -4.1066    0.5680    3.3260 H         1 <0>         0.0406
     62 H19        -2.4667   -0.1061    3.2804 H         1 <0>         0.0274
     63 H20        -2.1236   -2.5806    4.1412 H         1 <0>         0.0476
     64 H21        -3.0691   -2.1929    5.5894 H         1 <0>         0.0170
     65 H22        -3.5594   -3.5370    4.5502 H         1 <0>         0.0477
     66 H23        -5.6922   -2.2106   -2.7177 H         1 <0>         0.0814
     67 H24        -5.1252   -3.6512   -3.5363 H         1 <0>         0.0685
     68 H25        -2.3478    0.9988   -1.6296 H         1 <0>         0.1016
     69 H26        -1.9571    1.4582    0.0248 H         1 <0>         0.0660
     70 H27         0.0021    2.7844   -0.7898 H         1 <0>         0.0512
     71 H28        -0.4008    2.3932   -2.4497 H         1 <0>         0.0454
     72 H29        -4.5642   -3.1100    2.3009 H         1 <0>         0.0575
     73 H30        -4.8775   -1.4748    1.7520 H         1 <0>         0.0743
     74 H31        -2.6850    3.4001   -2.2340 H         1 <0>         0.0662
     75 H32        -2.2833    3.8776   -0.5783 H         1 <0>         0.0622
     76 H33         2.4001    1.7344   -1.1517 H         1 <0>         0.0321
     77 H34         1.9468    1.3120   -2.8125 H         1 <0>         0.0204
     78 H35        -2.3644   -1.1272    1.4485 H         1 <0>         0.0749
     79 H36        -3.0804   -3.7010   -2.0039 H         1 <0>         0.0719
     80 H37        -5.0090   -1.5561    4.1946 H         1 <0>         0.0609
     81 H38         0.0149    0.0012   -2.0158 H         1 <0>         0.1063
     82 H39        -6.6569    2.6769   -0.1130 H         1 <0>         0.4792
     83 H40        -7.0699    4.3298   -0.4455 H         1 <0>         0.4819
     84 H41        -3.7671    5.3663   -1.5301 H         1 <0>         0.4802
     85 H42        -5.4059    5.8868   -1.2630 H         1 <0>         0.4826
     86 H43         0.8216    0.7626    0.7549 H         1 <0>         0.3101
     87 H44        -2.4970   -3.5171   -0.0370 H         1 <0>         0.3087
     88 H45        -4.3806    1.9226   -0.4717 H         1 <0>         0.4846
     89 H46        -7.2802   -7.2027    1.3480 H         1 <0>         0.4194
     90 H47         1.8515   -6.8926    0.0654 H         1 <0>         0.4036
     91 H48         2.8853   -0.3414   -0.7399 H         1 <0>         0.4114
     92 H49        -3.6213   -2.0752   -3.9308 H         1 <0>         0.3944
@<TRIPOS>BOND
     1    1    3 ar
     2    1    5 ar
     3    2    4 ar
     4    2    5 ar
     5    3    6 ar
     6    4    6 ar
     7    5   21 1
     8    6   40 1
     9    7   15 1
    10    7   34 am
    11    7   37 2
    12    8   27 1
    13    8   31 am
    14    8   38 2
    15    9   28 1
    16    9   35 am
    17    9   39 2
    18   10   32 1
    19   10   33 1
    20   10   36 1
    21   11   12 1
    22   11   16 1
    23   12   18 1
    24   13   15 1
    25   13   16 1
    26   14   17 1
    27   14   18 1
    28   15   31 1
    29   16   17 1
    30   17   31 1
    31   18   41 1
    32   19   29 1
    33   20   29 1
    34   21   28 1
    35   22   23 1
    36   22   25 1
    37   23   30 1
    38   24   27 1
    39   24   29 1
    40   25   36 1
    41   26   30 1
    42   26   42 1
    43   27   35 1
    44   28   43 1
    45   30   34 1
    46    1   44 1
    47    2   45 1
    48    3   46 1
    49    4   47 1
    50   11   48 1
    51   11   49 1
    52   12   50 1
    53   12   51 1
    54   13   52 1
    55   13   53 1
    56   14   54 1
    57   14   55 1
    58   15   56 1
    59   16   57 1
    60   17   58 1
    61   18   59 1
    62   19   60 1
    63   19   61 1
    64   19   62 1
    65   20   63 1
    66   20   64 1
    67   20   65 1
    68   21   66 1
    69   21   67 1
    70   22   68 1
    71   22   69 1
    72   23   70 1
    73   23   71 1
    74   24   72 1
    75   24   73 1
    76   25   74 1
    77   25   75 1
    78   26   76 1
    79   26   77 1
    80   27   78 1
    81   28   79 1
    82   29   80 1
    83   30   81 1
    84   32   82 1
    85   32   83 1
    86   33   84 1
    87   33   85 1
    88   34   86 1
    89   35   87 1
    90   36   88 1
    91   40   89 1
    92   41   90 1
    93   42   91 1
    94   43   92 1
@<TRIPOS>MOLECULE
1a2c_ligand_227
   92    94     0     0     0
SMALL
USER_CHARGES

mmff94s_NoEstat = 121.91
@<TRIPOS>ATOM
      1 C1         -4.7608   -5.1990   -4.1804 C.ar      1 <0>        -0.0708
      2 C2         -2.8526   -5.9340   -2.8936 C.ar      1 <0>        -0.0872
      3 C3         -4.4187   -6.0908   -5.1970 C.ar      1 <0>        -0.2241
      4 C4         -2.5105   -6.8257   -3.9101 C.ar      1 <0>        -0.1600
      5 C5         -3.9732   -5.1326   -3.0424 C.ar      1 <0>        -0.1356
      6 C6         -3.2935   -6.9042   -5.0619 C.ar      1 <0>         0.1290
      7 C7         -0.0512   -1.0561    0.2993 C.2       1 <0>         0.6664
      8 C8         -1.8469   -3.0457    2.1630 C.2       1 <0>         0.6651
      9 C9         -3.6974   -2.0123   -0.8263 C.2       1 <0>         0.6454
     10 C10        -2.6672    5.4277   -0.3386 C.cat     1 <0>         0.6349
     11 C11         2.5186   -3.1911    0.6823 C.3       1 <0>        -0.0642
     12 C12         2.4580   -4.6414    0.2376 C.3       1 <0>        -0.0747
     13 C13         1.4874   -1.4827    2.2418 C.3       1 <0>        -0.0873
     14 C14         0.4946   -5.0934    1.7133 C.3       1 <0>        -0.1371
     15 C15         0.0412   -1.4176    1.7503 C.3       1 <0>         0.0360
     16 C16         1.8865   -2.9529    2.0632 C.3       1 <0>        -0.0720
     17 C17         0.5665   -3.7001    2.3454 C.3       1 <0>         0.1201
     18 C18         1.0248   -5.1525    0.2868 C.3       1 <0>         0.1453
     19 C19        -3.4345   -0.1597    3.7904 C.3       1 <0>        -0.0968
     20 C20        -3.1391   -2.5257    4.5483 C.3       1 <0>        -0.0986
     21 C21        -4.3440   -4.1677   -1.9416 C.3       1 <0>        -0.0191
     22 C22        -1.8968    1.7896   -1.0188 C.3       1 <0>        -0.1009
     23 C23        -0.4337    2.0012   -1.4250 C.3       1 <0>        -0.0942
     24 C24        -4.1436   -2.0954    2.2850 C.3       1 <0>        -0.0988
     25 C25        -2.7062    3.0733   -1.1890 C.3       1 <0>         0.1966
     26 C26         1.9058    0.9774   -1.7696 C.3       1 <0>         0.1128
     27 C27        -2.8325   -2.1090    1.5076 C.3       1 <0>         0.0786
     28 C28        -3.6869   -2.7967   -2.1325 C.3       1 <0>         0.0744
     29 C29        -4.0154   -1.5731    3.7302 C.3       1 <0>        -0.0678
     30 C30         0.4555    0.7445   -1.3388 C.3       1 <0>         0.1065
     31 N1         -0.4979   -2.7598    1.9615 N.am      1 <0>        -0.4315
     32 N2         -2.0958    6.4072    0.4670 N.pl3     1 <0>        -0.8671
     33 N3         -3.7703    5.7519   -1.1209 N.pl3     1 <0>        -0.8581
     34 N4          0.4455    0.1980   -0.0008 N.am      1 <0>        -0.5687
     35 N5         -2.9650   -2.6361    0.1813 N.am      1 <0>        -0.5746
     36 N6         -2.1460    4.1226   -0.3710 N.pl3     1 <0>        -0.7533
     37 O1         -0.5362   -1.8555   -0.4928 O.2       1 <0>        -0.5843
     38 O2         -2.2659   -3.9924    2.8322 O.2       1 <0>        -0.6812
     39 O3         -4.3065   -0.9527   -0.6974 O.2       1 <0>        -0.5788
     40 O4         -2.9606   -7.7755   -6.0531 O.3       1 <0>        -0.4938
     41 O5          0.9879   -6.5072   -0.1510 O.3       1 <0>        -0.6030
     42 O6          2.5087    1.9525   -0.9290 O.3       1 <0>        -0.5860
     43 O7         -4.4245   -2.0617   -3.0984 O.3       1 <0>        -0.6021
     44 H1         -5.6389   -4.5694   -4.2948 H         1 <0>         0.1412
     45 H2         -2.2369   -5.8798   -1.9996 H         1 <0>         0.1451
     46 H3         -5.0326   -6.1474   -6.0915 H         1 <0>         0.1336
     47 H4         -1.6332   -7.4575   -3.7986 H         1 <0>         0.1567
     48 H5          3.5627   -2.8549    0.7003 H         1 <0>         0.0649
     49 H6          2.0259   -2.5829   -0.0837 H         1 <0>         0.0476
     50 H7          2.8567   -4.7427   -0.7790 H         1 <0>         0.0641
     51 H8          3.1032   -5.2618    0.8729 H         1 <0>         0.0484
     52 H9          2.1569   -0.7868    1.7257 H         1 <0>         0.0596
     53 H10         1.5124   -1.2395    3.3116 H         1 <0>         0.0757
     54 H11         1.0921   -5.7802    2.3299 H         1 <0>         0.0782
     55 H12        -0.5175   -5.5090    1.7393 H         1 <0>         0.0812
     56 H13        -0.5378   -0.6778    2.3126 H         1 <0>         0.0731
     57 H14         2.6304   -3.2407    2.8169 H         1 <0>         0.0511
     58 H15         0.4523   -3.8218    3.4319 H         1 <0>         0.0753
     59 H16         0.3841   -4.5700   -0.3844 H         1 <0>         0.0427
     60 H17        -3.2863    0.1550    4.8292 H         1 <0>         0.0450
     61 H18        -4.1066    0.5680    3.3260 H         1 <0>         0.0406
     62 H19        -2.4667   -0.1061    3.2804 H         1 <0>         0.0274
     63 H20        -2.1236   -2.5806    4.1412 H         1 <0>         0.0476
     64 H21        -3.0691   -2.1929    5.5894 H         1 <0>         0.0170
     65 H22        -3.5594   -3.5370    4.5502 H         1 <0>         0.0477
     66 H23        -4.0491   -4.5950   -0.9738 H         1 <0>         0.0814
     67 H24        -5.4376   -4.0834   -1.9105 H         1 <0>         0.0685
     68 H25        -2.3478    0.9988   -1.6296 H         1 <0>         0.1016
     69 H26        -1.9571    1.4582    0.0248 H         1 <0>         0.0660
     70 H27         0.0021    2.7844   -0.7898 H         1 <0>         0.0512
     71 H28        -0.4008    2.3932   -2.4497 H         1 <0>         0.0454
     72 H29        -4.5642   -3.1100    2.3009 H         1 <0>         0.0575
     73 H30        -4.8775   -1.4748    1.7520 H         1 <0>         0.0743
     74 H31        -3.7481    2.9073   -0.8955 H         1 <0>         0.0662
     75 H32        -2.7006    3.3948   -2.2356 H         1 <0>         0.0622
     76 H33         1.9749    1.3199   -2.8074 H         1 <0>         0.0321
     77 H34         2.4858    0.0519   -1.6791 H         1 <0>         0.0204
     78 H35        -2.3644   -1.1272    1.4485 H         1 <0>         0.0749
     79 H36        -2.6537   -2.8903   -2.4873 H         1 <0>         0.0719
     80 H37        -5.0090   -1.5561    4.1946 H         1 <0>         0.0609
     81 H38         0.0149    0.0012   -2.0158 H         1 <0>         0.1063
     82 H39        -1.2903    6.2156    1.0567 H         1 <0>         0.4792
     83 H40        -2.4745    7.3512    0.4899 H         1 <0>         0.4819
     84 H41        -4.2125    5.0601   -1.7212 H         1 <0>         0.4802
     85 H42        -4.1632    6.6901   -1.1140 H         1 <0>         0.4826
     86 H43         0.8216    0.7626    0.7549 H         1 <0>         0.3101
     87 H44        -2.4970   -3.5171   -0.0370 H         1 <0>         0.3087
     88 H45        -1.3309    3.9380    0.2262 H         1 <0>         0.4846
     89 H46        -3.2124   -7.4135   -6.9176 H         1 <0>         0.4194
     90 H47         1.8515   -6.8926    0.0654 H         1 <0>         0.4036
     91 H48         2.2238    2.8203   -1.2580 H         1 <0>         0.4114
     92 H49        -4.9875   -2.6994   -3.5670 H         1 <0>         0.3944
@<TRIPOS>BOND
     1    1    3 ar
     2    1    5 ar
     3    2    4 ar
     4    2    5 ar
     5    3    6 ar
     6    4    6 ar
     7    5   21 1
     8    6   40 1
     9    7   15 1
    10    7   34 am
    11    7   37 2
    12    8   27 1
    13    8   31 am
    14    8   38 2
    15    9   28 1
    16    9   35 am
    17    9   39 2
    18   10   32 1
    19   10   33 1
    20   10   36 1
    21   11   12 1
    22   11   16 1
    23   12   18 1
    24   13   15 1
    25   13   16 1
    26   14   17 1
    27   14   18 1
    28   15   31 1
    29   16   17 1
    30   17   31 1
    31   18   41 1
    32   19   29 1
    33   20   29 1
    34   21   28 1
    35   22   23 1
    36   22   25 1
    37   23   30 1
    38   24   27 1
    39   24   29 1
    40   25   36 1
    41   26   30 1
    42   26   42 1
    43   27   35 1
    44   28   43 1
    45   30   34 1
    46    1   44 1
    47    2   45 1
    48    3   46 1
    49    4   47 1
    50   11   48 1
    51   11   49 1
    52   12   50 1
    53   12   51 1
    54   13   52 1
    55   13   53 1
    56   14   54 1
    57   14   55 1
    58   15   56 1
    59   16   57 1
    60   17   58 1
    61   18   59 1
    62   19   60 1
    63   19   61 1
    64   19   62 1
    65   20   63 1
    66   20   64 1
    67   20   65 1
    68   21   66 1
    69   21   67 1
    70   22   68 1
    71   22   69 1
    72   23   70 1
    73   23   71 1
    74   24   72 1
    75   24   73 1
    76   25   74 1
    77   25   75 1
    78   26   76 1
    79   26   77 1
    80   27   78 1
    81   28   79 1
    82   29   80 1
    83   30   81 1
    84   32   82 1
    85   32   83 1
    86   33   84 1
    87   33   85 1
    88   34   86 1
    89   35   87 1
    90   36   88 1
    91   40   89 1
    92   41   90 1
    93   42   91 1
    94   43   92 1
@<TRIPOS>MOLECULE
1a2c_ligand_228
   92    94     0     0     0
SMALL
USER_CHARGES

mmff94s_NoEstat = 122.05
@<TRIPOS>ATOM
      1 C1         -4.7608   -5.1990   -4.1804 C.ar      1 <0>        -0.0708
      2 C2         -2.8526   -5.9340   -2.8936 C.ar      1 <0>        -0.0872
      3 C3         -4.4187   -6.0908   -5.1970 C.ar      1 <0>        -0.2241
      4 C4         -2.5105   -6.8257   -3.9101 C.ar      1 <0>        -0.1600
      5 C5         -3.9732   -5.1326   -3.0424 C.ar      1 <0>        -0.1356
      6 C6         -3.2935   -6.9042   -5.0619 C.ar      1 <0>         0.1290
      7 C7         -0.0512   -1.0561    0.2993 C.2       1 <0>         0.6664
      8 C8         -1.8469   -3.0457    2.1630 C.2       1 <0>         0.6651
      9 C9         -3.6974   -2.0123   -0.8263 C.2       1 <0>         0.6454
     10 C10        -3.3294    2.0808   -3.5565 C.cat     1 <0>         0.6349
     11 C11         2.5186   -3.1911    0.6823 C.3       1 <0>        -0.0642
     12 C12         2.4580   -4.6414    0.2376 C.3       1 <0>        -0.0747
     13 C13         1.4874   -1.4827    2.2418 C.3       1 <0>        -0.0873
     14 C14         0.4946   -5.0934    1.7133 C.3       1 <0>        -0.1371
     15 C15         0.0412   -1.4176    1.7503 C.3       1 <0>         0.0360
     16 C16         1.8865   -2.9529    2.0632 C.3       1 <0>        -0.0720
     17 C17         0.5665   -3.7001    2.3454 C.3       1 <0>         0.1201
     18 C18         1.0248   -5.1525    0.2868 C.3       1 <0>         0.1453
     19 C19        -3.4345   -0.1597    3.7904 C.3       1 <0>        -0.0968
     20 C20        -3.1391   -2.5257    4.5483 C.3       1 <0>        -0.0986
     21 C21        -4.3440   -4.1677   -1.9416 C.3       1 <0>        -0.0191
     22 C22        -1.0374    2.7415   -0.6235 C.3       1 <0>        -0.1009
     23 C23         0.2513    2.2726   -1.3090 C.3       1 <0>        -0.0942
     24 C24        -4.1436   -2.0954    2.2850 C.3       1 <0>        -0.0988
     25 C25        -2.2684    2.1304   -1.2894 C.3       1 <0>         0.1966
     26 C26         1.7383    0.3016   -2.0469 C.3       1 <0>         0.1128
     27 C27        -2.8325   -2.1090    1.5076 C.3       1 <0>         0.0786
     28 C28        -3.6869   -2.7967   -2.1325 C.3       1 <0>         0.0744
     29 C29        -4.0154   -1.5731    3.7302 C.3       1 <0>        -0.0678
     30 C30         0.4555    0.7445   -1.3388 C.3       1 <0>         0.1065
     31 N1         -0.4979   -2.7598    1.9615 N.am      1 <0>        -0.4315
     32 N2         -3.3390    2.4766   -4.8899 N.pl3     1 <0>        -0.8671
     33 N3         -4.3382    1.2447   -3.0902 N.pl3     1 <0>        -0.8581
     34 N4          0.4455    0.1980   -0.0008 N.am      1 <0>        -0.5687
     35 N5         -2.9650   -2.6361    0.1813 N.am      1 <0>        -0.5746
     36 N6         -2.3186    2.5130   -2.6805 N.pl3     1 <0>        -0.7533
     37 O1         -0.5362   -1.8555   -0.4928 O.2       1 <0>        -0.5843
     38 O2         -2.2659   -3.9924    2.8322 O.2       1 <0>        -0.6812
     39 O3         -4.3065   -0.9527   -0.6974 O.2       1 <0>        -0.5788
     40 O4         -2.9606   -7.7755   -6.0531 O.3       1 <0>        -0.4938
     41 O5          0.9879   -6.5072   -0.1510 O.3       1 <0>        -0.6030
     42 O6          2.8703    0.8436   -1.3793 O.3       1 <0>        -0.5860
     43 O7         -4.4245   -2.0617   -3.0984 O.3       1 <0>        -0.6021
     44 H1         -5.6389   -4.5694   -4.2948 H         1 <0>         0.1412
     45 H2         -2.2369   -5.8798   -1.9996 H         1 <0>         0.1451
     46 H3         -5.0326   -6.1474   -6.0915 H         1 <0>         0.1336
     47 H4         -1.6332   -7.4575   -3.7986 H         1 <0>         0.1567
     48 H5          3.5627   -2.8549    0.7003 H         1 <0>         0.0649
     49 H6          2.0259   -2.5829   -0.0837 H         1 <0>         0.0476
     50 H7          2.8567   -4.7427   -0.7790 H         1 <0>         0.0641
     51 H8          3.1032   -5.2618    0.8729 H         1 <0>         0.0484
     52 H9          2.1569   -0.7868    1.7257 H         1 <0>         0.0596
     53 H10         1.5124   -1.2395    3.3116 H         1 <0>         0.0757
     54 H11         1.0921   -5.7802    2.3299 H         1 <0>         0.0782
     55 H12        -0.5175   -5.5090    1.7393 H         1 <0>         0.0812
     56 H13        -0.5378   -0.6778    2.3126 H         1 <0>         0.0731
     57 H14         2.6304   -3.2407    2.8169 H         1 <0>         0.0511
     58 H15         0.4523   -3.8218    3.4319 H         1 <0>         0.0753
     59 H16         0.3841   -4.5700   -0.3844 H         1 <0>         0.0427
     60 H17        -3.2863    0.1550    4.8292 H         1 <0>         0.0450
     61 H18        -4.1066    0.5680    3.3260 H         1 <0>         0.0406
     62 H19        -2.4667   -0.1061    3.2804 H         1 <0>         0.0274
     63 H20        -2.1236   -2.5806    4.1412 H         1 <0>         0.0476
     64 H21        -3.0691   -2.1929    5.5894 H         1 <0>         0.0170
     65 H22        -3.5594   -3.5370    4.5502 H         1 <0>         0.0477
     66 H23        -4.0491   -4.5950   -0.9738 H         1 <0>         0.0814
     67 H24        -5.4376   -4.0834   -1.9105 H         1 <0>         0.0685
     68 H25        -1.0263    2.4588    0.4356 H         1 <0>         0.1016
     69 H26        -1.1105    3.8350   -0.6596 H         1 <0>         0.0660
     70 H27         1.1110    2.7323   -0.8028 H         1 <0>         0.0512
     71 H28         0.2685    2.6560   -2.3373 H         1 <0>         0.0454
     72 H29        -4.5642   -3.1100    2.3009 H         1 <0>         0.0575
     73 H30        -4.8775   -1.4748    1.7520 H         1 <0>         0.0743
     74 H31        -3.1804    2.4738   -0.7898 H         1 <0>         0.0662
     75 H32        -2.2399    1.0381   -1.2201 H         1 <0>         0.0622
     76 H33         1.7614    0.6251   -3.0928 H         1 <0>         0.0321
     77 H34         1.8289   -0.7905   -2.0281 H         1 <0>         0.0204
     78 H35        -2.3644   -1.1272    1.4485 H         1 <0>         0.0749
     79 H36        -2.6537   -2.8903   -2.4873 H         1 <0>         0.0719
     80 H37        -5.0090   -1.5561    4.1946 H         1 <0>         0.0609
     81 H38        -0.3978    0.3245   -1.8868 H         1 <0>         0.1063
     82 H39        -2.6237    3.0881   -5.2742 H         1 <0>         0.4792
     83 H40        -4.0716    2.1635   -5.5226 H         1 <0>         0.4819
     84 H41        -4.3615    0.9362   -2.1213 H         1 <0>         0.4802
     85 H42        -5.0788    0.9188   -3.7066 H         1 <0>         0.4826
     86 H43         0.8216    0.7626    0.7549 H         1 <0>         0.3101
     87 H44        -2.4970   -3.5171   -0.0370 H         1 <0>         0.3087
     88 H45        -1.5986    3.1289   -3.0773 H         1 <0>         0.4846
     89 H46        -3.2124   -7.4135   -6.9176 H         1 <0>         0.4194
     90 H47         1.8515   -6.8926    0.0654 H         1 <0>         0.4036
     91 H48         2.9636    1.7601   -1.6856 H         1 <0>         0.4114
     92 H49        -4.9875   -2.6994   -3.5670 H         1 <0>         0.3944
@<TRIPOS>BOND
     1    1    3 ar
     2    1    5 ar
     3    2    4 ar
     4    2    5 ar
     5    3    6 ar
     6    4    6 ar
     7    5   21 1
     8    6   40 1
     9    7   15 1
    10    7   34 am
    11    7   37 2
    12    8   27 1
    13    8   31 am
    14    8   38 2
    15    9   28 1
    16    9   35 am
    17    9   39 2
    18   10   32 1
    19   10   33 1
    20   10   36 1
    21   11   12 1
    22   11   16 1
    23   12   18 1
    24   13   15 1
    25   13   16 1
    26   14   17 1
    27   14   18 1
    28   15   31 1
    29   16   17 1
    30   17   31 1
    31   18   41 1
    32   19   29 1
    33   20   29 1
    34   21   28 1
    35   22   23 1
    36   22   25 1
    37   23   30 1
    38   24   27 1
    39   24   29 1
    40   25   36 1
    41   26   30 1
    42   26   42 1
    43   27   35 1
    44   28   43 1
    45   30   34 1
    46    1   44 1
    47    2   45 1
    48    3   46 1
    49    4   47 1
    50   11   48 1
    51   11   49 1
    52   12   50 1
    53   12   51 1
    54   13   52 1
    55   13   53 1
    56   14   54 1
    57   14   55 1
    58   15   56 1
    59   16   57 1
    60   17   58 1
    61   18   59 1
    62   19   60 1
    63   19   61 1
    64   19   62 1
    65   20   63 1
    66   20   64 1
    67   20   65 1
    68   21   66 1
    69   21   67 1
    70   22   68 1
    71   22   69 1
    72   23   70 1
    73   23   71 1
    74   24   72 1
    75   24   73 1
    76   25   74 1
    77   25   75 1
    78   26   76 1
    79   26   77 1
    80   27   78 1
    81   28   79 1
    82   29   80 1
    83   30   81 1
    84   32   82 1
    85   32   83 1
    86   33   84 1
    87   33   85 1
    88   34   86 1
    89   35   87 1
    90   36   88 1
    91   40   89 1
    92   41   90 1
    93   42   91 1
    94   43   92 1
@<TRIPOS>MOLECULE
1a2c_ligand_229
   92    94     0     0     0
SMALL
USER_CHARGES

mmff94s_NoEstat = 122.18
@<TRIPOS>ATOM
      1 C1         -8.0971   -3.0036   -0.9352 C.ar      1 <0>        -0.0708
      2 C2         -6.1961   -1.6765   -1.6151 C.ar      1 <0>        -0.0872
      3 C3         -8.8596   -1.8432   -0.8024 C.ar      1 <0>        -0.2241
      4 C4         -6.9586   -0.5161   -1.4823 C.ar      1 <0>        -0.1600
      5 C5         -6.7756   -2.9047   -1.3398 C.ar      1 <0>        -0.1356
      6 C6         -8.2904   -0.5994   -1.0760 C.ar      1 <0>         0.1290
      7 C7         -0.0512   -1.0561    0.2993 C.2       1 <0>         0.6664
      8 C8         -1.8469   -3.0457    2.1630 C.2       1 <0>         0.6651
      9 C9         -3.9484   -3.7154   -0.0348 C.2       1 <0>         0.6454
     10 C10        -3.3294    2.0808   -3.5565 C.cat     1 <0>         0.6349
     11 C11         2.5186   -3.1911    0.6823 C.3       1 <0>        -0.0642
     12 C12         2.4580   -4.6414    0.2376 C.3       1 <0>        -0.0747
     13 C13         1.4874   -1.4827    2.2418 C.3       1 <0>        -0.0873
     14 C14         0.4946   -5.0934    1.7133 C.3       1 <0>        -0.1371
     15 C15         0.0412   -1.4176    1.7503 C.3       1 <0>         0.0360
     16 C16         1.8865   -2.9529    2.0632 C.3       1 <0>        -0.0720
     17 C17         0.5665   -3.7001    2.3454 C.3       1 <0>         0.1201
     18 C18         1.0248   -5.1525    0.2868 C.3       1 <0>         0.1453
     19 C19        -5.5746   -0.7475    1.4860 C.3       1 <0>        -0.0968
     20 C20        -3.7112    0.7464    0.7408 C.3       1 <0>        -0.0986
     21 C21        -5.9503   -4.1611   -1.4843 C.3       1 <0>        -0.0191
     22 C22        -1.0374    2.7415   -0.6235 C.3       1 <0>        -0.1009
     23 C23         0.2513    2.2726   -1.3090 C.3       1 <0>        -0.0942
     24 C24        -3.2372   -1.0062    2.4788 C.3       1 <0>        -0.0988
     25 C25        -2.2684    2.1304   -1.2894 C.3       1 <0>         0.1966
     26 C26         1.7383    0.3016   -2.0469 C.3       1 <0>         0.1128
     27 C27        -2.8325   -2.1090    1.5076 C.3       1 <0>         0.0786
     28 C28        -5.2285   -4.5282   -0.1835 C.3       1 <0>         0.0744
     29 C29        -4.2955   -0.0321    1.9228 C.3       1 <0>        -0.0678
     30 C30         0.4555    0.7445   -1.3388 C.3       1 <0>         0.1065
     31 N1         -0.4979   -2.7598    1.9615 N.am      1 <0>        -0.4315
     32 N2         -3.3390    2.4766   -4.8899 N.pl3     1 <0>        -0.8671
     33 N3         -4.3382    1.2447   -3.0902 N.pl3     1 <0>        -0.8581
     34 N4          0.4455    0.1980   -0.0008 N.am      1 <0>        -0.5687
     35 N5         -3.9193   -2.9688    1.1410 N.am      1 <0>        -0.5746
     36 N6         -2.3186    2.5130   -2.6805 N.pl3     1 <0>        -0.7533
     37 O1         -0.5362   -1.8555   -0.4928 O.2       1 <0>        -0.5843
     38 O2         -2.2659   -3.9924    2.8322 O.2       1 <0>        -0.6812
     39 O3         -3.0587   -3.7239   -0.8825 O.2       1 <0>        -0.5788
     40 O4         -9.0350    0.5328   -0.9479 O.3       1 <0>        -0.4938
     41 O5          0.9879   -6.5072   -0.1510 O.3       1 <0>        -0.6030
     42 O6          2.8703    0.8436   -1.3793 O.3       1 <0>        -0.5860
     43 O7         -4.8793   -5.9045   -0.2220 O.3       1 <0>        -0.6021
     44 H1         -8.5492   -3.9679   -0.7197 H         1 <0>         0.1412
     45 H2         -5.1592   -1.6021   -1.9326 H         1 <0>         0.1451
     46 H3         -9.8964   -1.9146   -0.4857 H         1 <0>         0.1336
     47 H4         -6.5097    0.4499   -1.6978 H         1 <0>         0.1567
     48 H5          3.5627   -2.8549    0.7003 H         1 <0>         0.0649
     49 H6          2.0259   -2.5829   -0.0837 H         1 <0>         0.0476
     50 H7          2.8567   -4.7427   -0.7790 H         1 <0>         0.0641
     51 H8          3.1032   -5.2618    0.8729 H         1 <0>         0.0484
     52 H9          2.1569   -0.7868    1.7257 H         1 <0>         0.0596
     53 H10         1.5124   -1.2395    3.3116 H         1 <0>         0.0757
     54 H11         1.0921   -5.7802    2.3299 H         1 <0>         0.0782
     55 H12        -0.5175   -5.5090    1.7393 H         1 <0>         0.0812
     56 H13        -0.5378   -0.6778    2.3126 H         1 <0>         0.0731
     57 H14         2.6304   -3.2407    2.8169 H         1 <0>         0.0511
     58 H15         0.4523   -3.8218    3.4319 H         1 <0>         0.0753
     59 H16         0.3841   -4.5700   -0.3844 H         1 <0>         0.0427
     60 H17        -6.2768   -0.0422    1.0282 H         1 <0>         0.0450
     61 H18        -6.0867   -1.2049    2.3377 H         1 <0>         0.0406
     62 H19        -5.3599   -1.5330    0.7535 H         1 <0>         0.0274
     63 H20        -3.4369    0.0757   -0.0807 H         1 <0>         0.0476
     64 H21        -4.4352    1.4732    0.3573 H         1 <0>         0.0170
     65 H22        -2.8146    1.2981    1.0427 H         1 <0>         0.0477
     66 H23        -5.2207   -4.0215   -2.2932 H         1 <0>         0.0814
     67 H24        -6.6115   -4.9722   -1.8145 H         1 <0>         0.0685
     68 H25        -1.0263    2.4588    0.4356 H         1 <0>         0.1016
     69 H26        -1.1105    3.8350   -0.6596 H         1 <0>         0.0660
     70 H27         1.1110    2.7323   -0.8028 H         1 <0>         0.0512
     71 H28         0.2685    2.6560   -2.3373 H         1 <0>         0.0454
     72 H29        -2.3434   -0.4411    2.7760 H         1 <0>         0.0575
     73 H30        -3.6273   -1.4576    3.4018 H         1 <0>         0.0743
     74 H31        -3.1804    2.4738   -0.7898 H         1 <0>         0.0662
     75 H32        -2.2399    1.0381   -1.2201 H         1 <0>         0.0622
     76 H33         1.7614    0.6251   -3.0928 H         1 <0>         0.0321
     77 H34         1.8289   -0.7905   -2.0281 H         1 <0>         0.0204
     78 H35        -2.3687   -1.7253    0.5998 H         1 <0>         0.0749
     79 H36        -5.8654   -4.3596    0.6929 H         1 <0>         0.0719
     80 H37        -4.5575    0.6951    2.7011 H         1 <0>         0.0609
     81 H38        -0.3978    0.3245   -1.8868 H         1 <0>         0.1063
     82 H39        -2.6237    3.0881   -5.2742 H         1 <0>         0.4792
     83 H40        -4.0716    2.1635   -5.5226 H         1 <0>         0.4819
     84 H41        -4.3615    0.9362   -2.1213 H         1 <0>         0.4802
     85 H42        -5.0788    0.9188   -3.7066 H         1 <0>         0.4826
     86 H43         0.8216    0.7626    0.7549 H         1 <0>         0.3101
     87 H44        -4.7157   -3.0377    1.7764 H         1 <0>         0.3087
     88 H45        -1.5986    3.1289   -3.0773 H         1 <0>         0.4846
     89 H46        -9.6853    0.4288   -0.2352 H         1 <0>         0.4194
     90 H47         1.8515   -6.8926    0.0654 H         1 <0>         0.4036
     91 H48         2.9636    1.7601   -1.6856 H         1 <0>         0.4114
     92 H49        -5.4048   -6.3080   -0.9320 H         1 <0>         0.3944
@<TRIPOS>BOND
     1    1    3 ar
     2    1    5 ar
     3    2    4 ar
     4    2    5 ar
     5    3    6 ar
     6    4    6 ar
     7    5   21 1
     8    6   40 1
     9    7   15 1
    10    7   34 am
    11    7   37 2
    12    8   27 1
    13    8   31 am
    14    8   38 2
    15    9   28 1
    16    9   35 am
    17    9   39 2
    18   10   32 1
    19   10   33 1
    20   10   36 1
    21   11   12 1
    22   11   16 1
    23   12   18 1
    24   13   15 1
    25   13   16 1
    26   14   17 1
    27   14   18 1
    28   15   31 1
    29   16   17 1
    30   17   31 1
    31   18   41 1
    32   19   29 1
    33   20   29 1
    34   21   28 1
    35   22   23 1
    36   22   25 1
    37   23   30 1
    38   24   27 1
    39   24   29 1
    40   25   36 1
    41   26   30 1
    42   26   42 1
    43   27   35 1
    44   28   43 1
    45   30   34 1
    46    1   44 1
    47    2   45 1
    48    3   46 1
    49    4   47 1
    50   11   48 1
    51   11   49 1
    52   12   50 1
    53   12   51 1
    54   13   52 1
    55   13   53 1
    56   14   54 1
    57   14   55 1
    58   15   56 1
    59   16   57 1
    60   17   58 1
    61   18   59 1
    62   19   60 1
    63   19   61 1
    64   19   62 1
    65   20   63 1
    66   20   64 1
    67   20   65 1
    68   21   66 1
    69   21   67 1
    70   22   68 1
    71   22   69 1
    72   23   70 1
    73   23   71 1
    74   24   72 1
    75   24   73 1
    76   25   74 1
    77   25   75 1
    78   26   76 1
    79   26   77 1
    80   27   78 1
    81   28   79 1
    82   29   80 1
    83   30   81 1
    84   32   82 1
    85   32   83 1
    86   33   84 1
    87   33   85 1
    88   34   86 1
    89   35   87 1
    90   36   88 1
    91   40   89 1
    92   41   90 1
    93   42   91 1
    94   43   92 1
@<TRIPOS>MOLECULE
1a2c_ligand_230
   92    94     0     0     0
SMALL
USER_CHARGES

mmff94s_NoEstat = 122.18
@<TRIPOS>ATOM
      1 C1         -4.6714   -3.3987   -5.2609 C.ar      1 <0>        -0.0708
      2 C2         -5.9688   -4.6770   -3.6736 C.ar      1 <0>        -0.0872
      3 C3         -4.9033   -4.3712   -6.2336 C.ar      1 <0>        -0.2241
      4 C4         -6.2008   -5.6495   -4.6463 C.ar      1 <0>        -0.1600
      5 C5         -5.2073   -3.5646   -3.9940 C.ar      1 <0>        -0.1356
      6 C6         -5.6680   -5.4966   -5.9263 C.ar      1 <0>         0.1290
      7 C7         -0.0512   -1.0561    0.2993 C.2       1 <0>         0.6664
      8 C8         -1.8469   -3.0457    2.1630 C.2       1 <0>         0.6651
      9 C9         -3.6974   -2.0123   -0.8263 C.2       1 <0>         0.6454
     10 C10        -5.0538    3.8595   -0.8167 C.cat     1 <0>         0.6349
     11 C11         2.5186   -3.1911    0.6823 C.3       1 <0>        -0.0642
     12 C12         2.4580   -4.6414    0.2376 C.3       1 <0>        -0.0747
     13 C13         1.4874   -1.4827    2.2418 C.3       1 <0>        -0.0873
     14 C14         0.4946   -5.0934    1.7133 C.3       1 <0>        -0.1371
     15 C15         0.0412   -1.4176    1.7503 C.3       1 <0>         0.0360
     16 C16         1.8865   -2.9529    2.0632 C.3       1 <0>        -0.0720
     17 C17         0.5665   -3.7001    2.3454 C.3       1 <0>         0.1201
     18 C18         1.0248   -5.1525    0.2868 C.3       1 <0>         0.1453
     19 C19        -3.4345   -0.1597    3.7904 C.3       1 <0>        -0.0968
     20 C20        -3.1391   -2.5257    4.5483 C.3       1 <0>        -0.0986
     21 C21        -4.9567   -2.5115   -2.9411 C.3       1 <0>        -0.0191
     22 C22        -1.8968    1.7896   -1.0188 C.3       1 <0>        -0.1009
     23 C23        -0.4337    2.0012   -1.4250 C.3       1 <0>        -0.0942
     24 C24        -4.1436   -2.0954    2.2850 C.3       1 <0>        -0.0988
     25 C25        -2.7062    3.0733   -1.1890 C.3       1 <0>         0.1966
     26 C26         1.9058    0.9774   -1.7696 C.3       1 <0>         0.1128
     27 C27        -2.8325   -2.1090    1.5076 C.3       1 <0>         0.0786
     28 C28        -3.6869   -2.7967   -2.1325 C.3       1 <0>         0.0744
     29 C29        -4.0154   -1.5731    3.7302 C.3       1 <0>        -0.0678
     30 C30         0.4555    0.7445   -1.3388 C.3       1 <0>         0.1065
     31 N1         -0.4979   -2.7598    1.9615 N.am      1 <0>        -0.4315
     32 N2         -6.3630    3.5983   -0.4259 N.pl3     1 <0>        -0.8671
     33 N3         -4.7148    5.1409   -1.2376 N.pl3     1 <0>        -0.8581
     34 N4          0.4455    0.1980   -0.0008 N.am      1 <0>        -0.5687
     35 N5         -2.9650   -2.6361    0.1813 N.am      1 <0>        -0.5746
     36 N6         -4.0759    2.8502   -0.7911 N.pl3     1 <0>        -0.7533
     37 O1         -0.5362   -1.8555   -0.4928 O.2       1 <0>        -0.5843
     38 O2         -2.2659   -3.9924    2.8322 O.2       1 <0>        -0.6812
     39 O3         -4.3065   -0.9527   -0.6974 O.2       1 <0>        -0.5788
     40 O4         -5.8957   -6.4447   -6.8760 O.3       1 <0>        -0.4938
     41 O5          0.9879   -6.5072   -0.1510 O.3       1 <0>        -0.6030
     42 O6          2.6391   -0.2366   -1.6731 O.3       1 <0>        -0.5860
     43 O7         -2.5564   -2.3866   -2.8882 O.3       1 <0>        -0.6021
     44 H1         -4.0743   -2.5256   -5.5096 H         1 <0>         0.1412
     45 H2         -6.3881   -4.8044   -2.6789 H         1 <0>         0.1451
     46 H3         -4.4858   -4.2463   -7.2288 H         1 <0>         0.1336
     47 H4         -6.7982   -6.5237   -4.4010 H         1 <0>         0.1567
     48 H5          3.5627   -2.8549    0.7003 H         1 <0>         0.0649
     49 H6          2.0259   -2.5829   -0.0837 H         1 <0>         0.0476
     50 H7          2.8567   -4.7427   -0.7790 H         1 <0>         0.0641
     51 H8          3.1032   -5.2618    0.8729 H         1 <0>         0.0484
     52 H9          2.1569   -0.7868    1.7257 H         1 <0>         0.0596
     53 H10         1.5124   -1.2395    3.3116 H         1 <0>         0.0757
     54 H11         1.0921   -5.7802    2.3299 H         1 <0>         0.0782
     55 H12        -0.5175   -5.5090    1.7393 H         1 <0>         0.0812
     56 H13        -0.5378   -0.6778    2.3126 H         1 <0>         0.0731
     57 H14         2.6304   -3.2407    2.8169 H         1 <0>         0.0511
     58 H15         0.4523   -3.8218    3.4319 H         1 <0>         0.0753
     59 H16         0.3841   -4.5700   -0.3844 H         1 <0>         0.0427
     60 H17        -3.2863    0.1550    4.8292 H         1 <0>         0.0450
     61 H18        -4.1066    0.5680    3.3260 H         1 <0>         0.0406
     62 H19        -2.4667   -0.1061    3.2804 H         1 <0>         0.0274
     63 H20        -2.1236   -2.5806    4.1412 H         1 <0>         0.0476
     64 H21        -3.0691   -2.1929    5.5894 H         1 <0>         0.0170
     65 H22        -3.5594   -3.5370    4.5502 H         1 <0>         0.0477
     66 H23        -5.8255   -2.4582   -2.2714 H         1 <0>         0.0814
     67 H24        -4.9010   -1.5342   -3.4370 H         1 <0>         0.0685
     68 H25        -2.3478    0.9988   -1.6296 H         1 <0>         0.1016
     69 H26        -1.9571    1.4582    0.0248 H         1 <0>         0.0660
     70 H27         0.0021    2.7844   -0.7898 H         1 <0>         0.0512
     71 H28        -0.4008    2.3932   -2.4497 H         1 <0>         0.0454
     72 H29        -4.5642   -3.1100    2.3009 H         1 <0>         0.0575
     73 H30        -4.8775   -1.4748    1.7520 H         1 <0>         0.0743
     74 H31        -2.6850    3.4001   -2.2340 H         1 <0>         0.0662
     75 H32        -2.2833    3.8776   -0.5783 H         1 <0>         0.0622
     76 H33         2.4001    1.7344   -1.1517 H         1 <0>         0.0321
     77 H34         1.9468    1.3120   -2.8125 H         1 <0>         0.0204
     78 H35        -2.3644   -1.1272    1.4485 H         1 <0>         0.0749
     79 H36        -3.5820   -3.8651   -1.9094 H         1 <0>         0.0719
     80 H37        -5.0090   -1.5561    4.1946 H         1 <0>         0.0609
     81 H38         0.0149    0.0012   -2.0158 H         1 <0>         0.1063
     82 H39        -6.6569    2.6769   -0.1130 H         1 <0>         0.4792
     83 H40        -7.0699    4.3298   -0.4455 H         1 <0>         0.4819
     84 H41        -3.7671    5.3663   -1.5301 H         1 <0>         0.4802
     85 H42        -5.4059    5.8868   -1.2630 H         1 <0>         0.4826
     86 H43         0.8216    0.7626    0.7549 H         1 <0>         0.3101
     87 H44        -2.4970   -3.5171   -0.0370 H         1 <0>         0.3087
     88 H45        -4.3806    1.9226   -0.4717 H         1 <0>         0.4846
     89 H46        -5.1365   -6.5076   -7.4772 H         1 <0>         0.4194
     90 H47         1.8515   -6.8926    0.0654 H         1 <0>         0.4036
     91 H48         2.8853   -0.3414   -0.7399 H         1 <0>         0.4114
     92 H49        -2.8568   -2.2745   -3.8049 H         1 <0>         0.3944
@<TRIPOS>BOND
     1    1    3 ar
     2    1    5 ar
     3    2    4 ar
     4    2    5 ar
     5    3    6 ar
     6    4    6 ar
     7    5   21 1
     8    6   40 1
     9    7   15 1
    10    7   34 am
    11    7   37 2
    12    8   27 1
    13    8   31 am
    14    8   38 2
    15    9   28 1
    16    9   35 am
    17    9   39 2
    18   10   32 1
    19   10   33 1
    20   10   36 1
    21   11   12 1
    22   11   16 1
    23   12   18 1
    24   13   15 1
    25   13   16 1
    26   14   17 1
    27   14   18 1
    28   15   31 1
    29   16   17 1
    30   17   31 1
    31   18   41 1
    32   19   29 1
    33   20   29 1
    34   21   28 1
    35   22   23 1
    36   22   25 1
    37   23   30 1
    38   24   27 1
    39   24   29 1
    40   25   36 1
    41   26   30 1
    42   26   42 1
    43   27   35 1
    44   28   43 1
    45   30   34 1
    46    1   44 1
    47    2   45 1
    48    3   46 1
    49    4   47 1
    50   11   48 1
    51   11   49 1
    52   12   50 1
    53   12   51 1
    54   13   52 1
    55   13   53 1
    56   14   54 1
    57   14   55 1
    58   15   56 1
    59   16   57 1
    60   17   58 1
    61   18   59 1
    62   19   60 1
    63   19   61 1
    64   19   62 1
    65   20   63 1
    66   20   64 1
    67   20   65 1
    68   21   66 1
    69   21   67 1
    70   22   68 1
    71   22   69 1
    72   23   70 1
    73   23   71 1
    74   24   72 1
    75   24   73 1
    76   25   74 1
    77   25   75 1
    78   26   76 1
    79   26   77 1
    80   27   78 1
    81   28   79 1
    82   29   80 1
    83   30   81 1
    84   32   82 1
    85   32   83 1
    86   33   84 1
    87   33   85 1
    88   34   86 1
    89   35   87 1
    90   36   88 1
    91   40   89 1
    92   41   90 1
    93   42   91 1
    94   43   92 1
@<TRIPOS>MOLECULE
1a2c_ligand_231
   92    94     0     0     0
SMALL
USER_CHARGES

mmff94s_NoEstat = 122.23
@<TRIPOS>ATOM
      1 C1         -5.1167   -4.6157   -4.5336 C.ar      1 <0>        -0.0708
      2 C2         -4.1111   -6.0254   -2.8488 C.ar      1 <0>        -0.0872
      3 C3         -4.9398   -5.6231   -5.4821 C.ar      1 <0>        -0.2241
      4 C4         -3.9342   -7.0328   -3.7973 C.ar      1 <0>        -0.1600
      5 C5         -4.7001   -4.8304   -3.2297 C.ar      1 <0>        -0.1356
      6 C6         -4.3485   -6.8316   -5.1139 C.ar      1 <0>         0.1290
      7 C7         -0.0512   -1.0561    0.2993 C.2       1 <0>         0.6664
      8 C8         -1.8469   -3.0457    2.1630 C.2       1 <0>         0.6651
      9 C9         -3.6974   -2.0123   -0.8263 C.2       1 <0>         0.6454
     10 C10        -3.3611    4.6327   -3.0349 C.cat     1 <0>         0.6349
     11 C11         2.5186   -3.1911    0.6823 C.3       1 <0>        -0.0642
     12 C12         2.4580   -4.6414    0.2376 C.3       1 <0>        -0.0747
     13 C13         1.4874   -1.4827    2.2418 C.3       1 <0>        -0.0873
     14 C14         0.4946   -5.0934    1.7133 C.3       1 <0>        -0.1371
     15 C15         0.0412   -1.4176    1.7503 C.3       1 <0>         0.0360
     16 C16         1.8865   -2.9529    2.0632 C.3       1 <0>        -0.0720
     17 C17         0.5665   -3.7001    2.3454 C.3       1 <0>         0.1201
     18 C18         1.0248   -5.1525    0.2868 C.3       1 <0>         0.1453
     19 C19        -3.4345   -0.1597    3.7904 C.3       1 <0>        -0.0968
     20 C20        -3.1391   -2.5257    4.5483 C.3       1 <0>        -0.0986
     21 C21        -4.8923   -3.7401   -2.2028 C.3       1 <0>        -0.0191
     22 C22        -1.8968    1.7896   -1.0188 C.3       1 <0>        -0.1009
     23 C23        -0.4337    2.0012   -1.4250 C.3       1 <0>        -0.0942
     24 C24        -4.1436   -2.0954    2.2850 C.3       1 <0>        -0.0988
     25 C25        -2.7062    3.0733   -1.1890 C.3       1 <0>         0.1966
     26 C26         1.9058    0.9774   -1.7696 C.3       1 <0>         0.1128
     27 C27        -2.8325   -2.1090    1.5076 C.3       1 <0>         0.0786
     28 C28        -3.6869   -2.7967   -2.1325 C.3       1 <0>         0.0744
     29 C29        -4.0154   -1.5731    3.7302 C.3       1 <0>        -0.0678
     30 C30         0.4555    0.7445   -1.3388 C.3       1 <0>         0.1065
     31 N1         -0.4979   -2.7598    1.9615 N.am      1 <0>        -0.4315
     32 N2         -3.3082    5.0008   -4.3753 N.pl3     1 <0>        -0.8671
     33 N3         -4.0986    5.4088   -2.1474 N.pl3     1 <0>        -0.8581
     34 N4          0.4455    0.1980   -0.0008 N.am      1 <0>        -0.5687
     35 N5         -2.9650   -2.6361    0.1813 N.am      1 <0>        -0.5746
     36 N6         -2.6823    3.4930   -2.5701 N.pl3     1 <0>        -0.7533
     37 O1         -0.5362   -1.8555   -0.4928 O.2       1 <0>        -0.5843
     38 O2         -2.2659   -3.9924    2.8322 O.2       1 <0>        -0.6812
     39 O3         -4.3065   -0.9527   -0.6974 O.2       1 <0>        -0.5788
     40 O4         -4.1773   -7.8152   -6.0391 O.3       1 <0>        -0.4938
     41 O5          0.9879   -6.5072   -0.1510 O.3       1 <0>        -0.6030
     42 O6          2.5087    1.9525   -0.9290 O.3       1 <0>        -0.5860
     43 O7         -3.7616   -1.8713   -3.2074 O.3       1 <0>        -0.6021
     44 H1         -5.5781   -3.6776   -4.8299 H         1 <0>         0.1412
     45 H2         -3.7855   -6.1911   -1.8251 H         1 <0>         0.1451
     46 H3         -5.2647   -5.4604   -6.5059 H         1 <0>         0.1336
     47 H4         -3.4737   -7.9726   -3.5041 H         1 <0>         0.1567
     48 H5          3.5627   -2.8549    0.7003 H         1 <0>         0.0649
     49 H6          2.0259   -2.5829   -0.0837 H         1 <0>         0.0476
     50 H7          2.8567   -4.7427   -0.7790 H         1 <0>         0.0641
     51 H8          3.1032   -5.2618    0.8729 H         1 <0>         0.0484
     52 H9          2.1569   -0.7868    1.7257 H         1 <0>         0.0596
     53 H10         1.5124   -1.2395    3.3116 H         1 <0>         0.0757
     54 H11         1.0921   -5.7802    2.3299 H         1 <0>         0.0782
     55 H12        -0.5175   -5.5090    1.7393 H         1 <0>         0.0812
     56 H13        -0.5378   -0.6778    2.3126 H         1 <0>         0.0731
     57 H14         2.6304   -3.2407    2.8169 H         1 <0>         0.0511
     58 H15         0.4523   -3.8218    3.4319 H         1 <0>         0.0753
     59 H16         0.3841   -4.5700   -0.3844 H         1 <0>         0.0427
     60 H17        -3.2863    0.1550    4.8292 H         1 <0>         0.0450
     61 H18        -4.1066    0.5680    3.3260 H         1 <0>         0.0406
     62 H19        -2.4667   -0.1061    3.2804 H         1 <0>         0.0274
     63 H20        -2.1236   -2.5806    4.1412 H         1 <0>         0.0476
     64 H21        -3.0691   -2.1929    5.5894 H         1 <0>         0.0170
     65 H22        -3.5594   -3.5370    4.5502 H         1 <0>         0.0477
     66 H23        -5.0697   -4.1980   -1.2205 H         1 <0>         0.0814
     67 H24        -5.8113   -3.1931   -2.4481 H         1 <0>         0.0685
     68 H25        -2.3478    0.9988   -1.6296 H         1 <0>         0.1016
     69 H26        -1.9571    1.4582    0.0248 H         1 <0>         0.0660
     70 H27         0.0021    2.7844   -0.7898 H         1 <0>         0.0512
     71 H28        -0.4008    2.3932   -2.4497 H         1 <0>         0.0454
     72 H29        -4.5642   -3.1100    2.3009 H         1 <0>         0.0575
     73 H30        -4.8775   -1.4748    1.7520 H         1 <0>         0.0743
     74 H31        -2.2897    3.8707   -0.5646 H         1 <0>         0.0662
     75 H32        -3.7451    2.9157   -0.8815 H         1 <0>         0.0622
     76 H33         1.9749    1.3199   -2.8074 H         1 <0>         0.0321
     77 H34         2.4858    0.0519   -1.6791 H         1 <0>         0.0204
     78 H35        -2.3644   -1.1272    1.4485 H         1 <0>         0.0749
     79 H36        -2.7406   -3.3442   -2.2154 H         1 <0>         0.0719
     80 H37        -5.0090   -1.5561    4.1946 H         1 <0>         0.0609
     81 H38         0.0149    0.0012   -2.0158 H         1 <0>         0.1063
     82 H39        -2.7804    4.4652   -5.0593 H         1 <0>         0.4792
     83 H40        -3.7995    5.8263   -4.7102 H         1 <0>         0.4819
     84 H41        -4.1585    5.1685   -1.1609 H         1 <0>         0.4802
     85 H42        -4.5986    6.2369   -2.4619 H         1 <0>         0.4826
     86 H43         0.8216    0.7626    0.7549 H         1 <0>         0.3101
     87 H44        -2.4970   -3.5171   -0.0370 H         1 <0>         0.3087
     88 H45        -2.1531    2.9563   -3.2681 H         1 <0>         0.4846
     89 H46        -4.0172   -7.4289   -6.9149 H         1 <0>         0.4194
     90 H47         1.8515   -6.8926    0.0654 H         1 <0>         0.4036
     91 H48         2.2238    2.8203   -1.2580 H         1 <0>         0.4114
     92 H49        -4.4012   -2.2307   -3.8437 H         1 <0>         0.3944
@<TRIPOS>BOND
     1    1    3 ar
     2    1    5 ar
     3    2    4 ar
     4    2    5 ar
     5    3    6 ar
     6    4    6 ar
     7    5   21 1
     8    6   40 1
     9    7   15 1
    10    7   34 am
    11    7   37 2
    12    8   27 1
    13    8   31 am
    14    8   38 2
    15    9   28 1
    16    9   35 am
    17    9   39 2
    18   10   32 1
    19   10   33 1
    20   10   36 1
    21   11   12 1
    22   11   16 1
    23   12   18 1
    24   13   15 1
    25   13   16 1
    26   14   17 1
    27   14   18 1
    28   15   31 1
    29   16   17 1
    30   17   31 1
    31   18   41 1
    32   19   29 1
    33   20   29 1
    34   21   28 1
    35   22   23 1
    36   22   25 1
    37   23   30 1
    38   24   27 1
    39   24   29 1
    40   25   36 1
    41   26   30 1
    42   26   42 1
    43   27   35 1
    44   28   43 1
    45   30   34 1
    46    1   44 1
    47    2   45 1
    48    3   46 1
    49    4   47 1
    50   11   48 1
    51   11   49 1
    52   12   50 1
    53   12   51 1
    54   13   52 1
    55   13   53 1
    56   14   54 1
    57   14   55 1
    58   15   56 1
    59   16   57 1
    60   17   58 1
    61   18   59 1
    62   19   60 1
    63   19   61 1
    64   19   62 1
    65   20   63 1
    66   20   64 1
    67   20   65 1
    68   21   66 1
    69   21   67 1
    70   22   68 1
    71   22   69 1
    72   23   70 1
    73   23   71 1
    74   24   72 1
    75   24   73 1
    76   25   74 1
    77   25   75 1
    78   26   76 1
    79   26   77 1
    80   27   78 1
    81   28   79 1
    82   29   80 1
    83   30   81 1
    84   32   82 1
    85   32   83 1
    86   33   84 1
    87   33   85 1
    88   34   86 1
    89   35   87 1
    90   36   88 1
    91   40   89 1
    92   41   90 1
    93   42   91 1
    94   43   92 1
@<TRIPOS>MOLECULE
1a2c_ligand_232
   92    94     0     0     0
SMALL
USER_CHARGES

mmff94s_NoEstat = 122.52
@<TRIPOS>ATOM
      1 C1         -5.1167   -4.6157   -4.5336 C.ar      1 <0>        -0.0708
      2 C2         -4.1111   -6.0254   -2.8488 C.ar      1 <0>        -0.0872
      3 C3         -4.9398   -5.6231   -5.4821 C.ar      1 <0>        -0.2241
      4 C4         -3.9342   -7.0328   -3.7973 C.ar      1 <0>        -0.1600
      5 C5         -4.7001   -4.8304   -3.2297 C.ar      1 <0>        -0.1356
      6 C6         -4.3485   -6.8316   -5.1139 C.ar      1 <0>         0.1290
      7 C7         -0.0512   -1.0561    0.2993 C.2       1 <0>         0.6664
      8 C8         -1.8469   -3.0457    2.1630 C.2       1 <0>         0.6651
      9 C9         -3.6974   -2.0123   -0.8263 C.2       1 <0>         0.6454
     10 C10        -4.7581    2.2187   -1.0418 C.cat     1 <0>         0.6349
     11 C11         2.5186   -3.1911    0.6823 C.3       1 <0>        -0.0642
     12 C12         2.4580   -4.6414    0.2376 C.3       1 <0>        -0.0747
     13 C13         1.4874   -1.4827    2.2418 C.3       1 <0>        -0.0873
     14 C14         0.4946   -5.0934    1.7133 C.3       1 <0>        -0.1371
     15 C15         0.0412   -1.4176    1.7503 C.3       1 <0>         0.0360
     16 C16         1.8865   -2.9529    2.0632 C.3       1 <0>        -0.0720
     17 C17         0.5665   -3.7001    2.3454 C.3       1 <0>         0.1201
     18 C18         1.0248   -5.1525    0.2868 C.3       1 <0>         0.1453
     19 C19        -3.4345   -0.1597    3.7904 C.3       1 <0>        -0.0968
     20 C20        -3.1391   -2.5257    4.5483 C.3       1 <0>        -0.0986
     21 C21        -4.8923   -3.7401   -2.2028 C.3       1 <0>        -0.0191
     22 C22        -1.0374    2.7415   -0.6235 C.3       1 <0>        -0.1009
     23 C23         0.2513    2.2726   -1.3090 C.3       1 <0>        -0.0942
     24 C24        -4.1436   -2.0954    2.2850 C.3       1 <0>        -0.0988
     25 C25        -2.2684    2.1304   -1.2894 C.3       1 <0>         0.1966
     26 C26         1.7383    0.3016   -2.0469 C.3       1 <0>         0.1128
     27 C27        -2.8325   -2.1090    1.5076 C.3       1 <0>         0.0786
     28 C28        -3.6869   -2.7967   -2.1325 C.3       1 <0>         0.0744
     29 C29        -4.0154   -1.5731    3.7302 C.3       1 <0>        -0.0678
     30 C30         0.4555    0.7445   -1.3388 C.3       1 <0>         0.1065
     31 N1         -0.4979   -2.7598    1.9615 N.am      1 <0>        -0.4315
     32 N2         -5.8857    2.6895   -0.3772 N.pl3     1 <0>        -0.8671
     33 N3         -4.9183    1.3635   -2.1267 N.pl3     1 <0>        -0.8581
     34 N4          0.4455    0.1980   -0.0008 N.am      1 <0>        -0.5687
     35 N5         -2.9650   -2.6361    0.1813 N.am      1 <0>        -0.5746
     36 N6         -3.4671    2.5948   -0.6325 N.pl3     1 <0>        -0.7533
     37 O1         -0.5362   -1.8555   -0.4928 O.2       1 <0>        -0.5843
     38 O2         -2.2659   -3.9924    2.8322 O.2       1 <0>        -0.6812
     39 O3         -4.3065   -0.9527   -0.6974 O.2       1 <0>        -0.5788
     40 O4         -4.1773   -7.8152   -6.0391 O.3       1 <0>        -0.4938
     41 O5          0.9879   -6.5072   -0.1510 O.3       1 <0>        -0.6030
     42 O6          2.8703    0.8436   -1.3793 O.3       1 <0>        -0.5860
     43 O7         -3.7616   -1.8713   -3.2074 O.3       1 <0>        -0.6021
     44 H1         -5.5781   -3.6776   -4.8299 H         1 <0>         0.1412
     45 H2         -3.7855   -6.1911   -1.8251 H         1 <0>         0.1451
     46 H3         -5.2647   -5.4604   -6.5059 H         1 <0>         0.1336
     47 H4         -3.4737   -7.9726   -3.5041 H         1 <0>         0.1567
     48 H5          3.5627   -2.8549    0.7003 H         1 <0>         0.0649
     49 H6          2.0259   -2.5829   -0.0837 H         1 <0>         0.0476
     50 H7          2.8567   -4.7427   -0.7790 H         1 <0>         0.0641
     51 H8          3.1032   -5.2618    0.8729 H         1 <0>         0.0484
     52 H9          2.1569   -0.7868    1.7257 H         1 <0>         0.0596
     53 H10         1.5124   -1.2395    3.3116 H         1 <0>         0.0757
     54 H11         1.0921   -5.7802    2.3299 H         1 <0>         0.0782
     55 H12        -0.5175   -5.5090    1.7393 H         1 <0>         0.0812
     56 H13        -0.5378   -0.6778    2.3126 H         1 <0>         0.0731
     57 H14         2.6304   -3.2407    2.8169 H         1 <0>         0.0511
     58 H15         0.4523   -3.8218    3.4319 H         1 <0>         0.0753
     59 H16         0.3841   -4.5700   -0.3844 H         1 <0>         0.0427
     60 H17        -3.2863    0.1550    4.8292 H         1 <0>         0.0450
     61 H18        -4.1066    0.5680    3.3260 H         1 <0>         0.0406
     62 H19        -2.4667   -0.1061    3.2804 H         1 <0>         0.0274
     63 H20        -2.1236   -2.5806    4.1412 H         1 <0>         0.0476
     64 H21        -3.0691   -2.1929    5.5894 H         1 <0>         0.0170
     65 H22        -3.5594   -3.5370    4.5502 H         1 <0>         0.0477
     66 H23        -5.0697   -4.1980   -1.2205 H         1 <0>         0.0814
     67 H24        -5.8113   -3.1931   -2.4481 H         1 <0>         0.0685
     68 H25        -1.0263    2.4588    0.4356 H         1 <0>         0.1016
     69 H26        -1.1105    3.8350   -0.6596 H         1 <0>         0.0660
     70 H27         1.1110    2.7323   -0.8028 H         1 <0>         0.0512
     71 H28         0.2685    2.6560   -2.3373 H         1 <0>         0.0454
     72 H29        -4.5642   -3.1100    2.3009 H         1 <0>         0.0575
     73 H30        -4.8775   -1.4748    1.7520 H         1 <0>         0.0743
     74 H31        -2.2283    1.0375   -1.2319 H         1 <0>         0.0662
     75 H32        -2.3103    2.4085   -2.3475 H         1 <0>         0.0622
     76 H33         1.7614    0.6251   -3.0928 H         1 <0>         0.0321
     77 H34         1.8289   -0.7905   -2.0281 H         1 <0>         0.0204
     78 H35        -2.3644   -1.1272    1.4485 H         1 <0>         0.0749
     79 H36        -2.7406   -3.3442   -2.2154 H         1 <0>         0.0719
     80 H37        -5.0090   -1.5561    4.1946 H         1 <0>         0.0609
     81 H38        -0.3978    0.3245   -1.8868 H         1 <0>         0.1063
     82 H39        -5.8171    3.3144    0.4215 H         1 <0>         0.4792
     83 H40        -6.8195    2.4159   -0.6742 H         1 <0>         0.4819
     84 H41        -4.1156    1.0007   -2.6351 H         1 <0>         0.4802
     85 H42        -5.8430    1.0792   -2.4410 H         1 <0>         0.4826
     86 H43         0.8216    0.7626    0.7549 H         1 <0>         0.3101
     87 H44        -2.4970   -3.5171   -0.0370 H         1 <0>         0.3087
     88 H45        -3.4066    3.2281    0.1740 H         1 <0>         0.4846
     89 H46        -4.0172   -7.4289   -6.9149 H         1 <0>         0.4194
     90 H47         1.8515   -6.8926    0.0654 H         1 <0>         0.4036
     91 H48         2.9636    1.7601   -1.6856 H         1 <0>         0.4114
     92 H49        -4.4012   -2.2307   -3.8437 H         1 <0>         0.3944
@<TRIPOS>BOND
     1    1    3 ar
     2    1    5 ar
     3    2    4 ar
     4    2    5 ar
     5    3    6 ar
     6    4    6 ar
     7    5   21 1
     8    6   40 1
     9    7   15 1
    10    7   34 am
    11    7   37 2
    12    8   27 1
    13    8   31 am
    14    8   38 2
    15    9   28 1
    16    9   35 am
    17    9   39 2
    18   10   32 1
    19   10   33 1
    20   10   36 1
    21   11   12 1
    22   11   16 1
    23   12   18 1
    24   13   15 1
    25   13   16 1
    26   14   17 1
    27   14   18 1
    28   15   31 1
    29   16   17 1
    30   17   31 1
    31   18   41 1
    32   19   29 1
    33   20   29 1
    34   21   28 1
    35   22   23 1
    36   22   25 1
    37   23   30 1
    38   24   27 1
    39   24   29 1
    40   25   36 1
    41   26   30 1
    42   26   42 1
    43   27   35 1
    44   28   43 1
    45   30   34 1
    46    1   44 1
    47    2   45 1
    48    3   46 1
    49    4   47 1
    50   11   48 1
    51   11   49 1
    52   12   50 1
    53   12   51 1
    54   13   52 1
    55   13   53 1
    56   14   54 1
    57   14   55 1
    58   15   56 1
    59   16   57 1
    60   17   58 1
    61   18   59 1
    62   19   60 1
    63   19   61 1
    64   19   62 1
    65   20   63 1
    66   20   64 1
    67   20   65 1
    68   21   66 1
    69   21   67 1
    70   22   68 1
    71   22   69 1
    72   23   70 1
    73   23   71 1
    74   24   72 1
    75   24   73 1
    76   25   74 1
    77   25   75 1
    78   26   76 1
    79   26   77 1
    80   27   78 1
    81   28   79 1
    82   29   80 1
    83   30   81 1
    84   32   82 1
    85   32   83 1
    86   33   84 1
    87   33   85 1
    88   34   86 1
    89   35   87 1
    90   36   88 1
    91   40   89 1
    92   41   90 1
    93   42   91 1
    94   43   92 1
@<TRIPOS>MOLECULE
1a2c_ligand_233
   92    94     0     0     0
SMALL
USER_CHARGES

mmff94s_NoEstat = 122.72
@<TRIPOS>ATOM
      1 C1         -5.4643   -5.6044   -2.4089 C.ar      1 <0>        -0.0708
      2 C2         -6.3330   -4.1875   -0.6554 C.ar      1 <0>        -0.0872
      3 C3         -5.9632   -6.7273   -1.7487 C.ar      1 <0>        -0.2241
      4 C4         -6.8319   -5.3103    0.0048 C.ar      1 <0>        -0.1600
      5 C5         -5.6560   -4.3496   -1.8535 C.ar      1 <0>        -0.1356
      6 C6         -6.6470   -6.5803   -0.5418 C.ar      1 <0>         0.1290
      7 C7         -0.0512   -1.0561    0.2993 C.2       1 <0>         0.6664
      8 C8         -1.8469   -3.0457    2.1630 C.2       1 <0>         0.6651
      9 C9         -3.6974   -2.0123   -0.8263 C.2       1 <0>         0.6454
     10 C10        -3.3611    4.6327   -3.0349 C.cat     1 <0>         0.6349
     11 C11         2.5186   -3.1911    0.6823 C.3       1 <0>        -0.0642
     12 C12         2.4580   -4.6414    0.2376 C.3       1 <0>        -0.0747
     13 C13         1.4874   -1.4827    2.2418 C.3       1 <0>        -0.0873
     14 C14         0.4946   -5.0934    1.7133 C.3       1 <0>        -0.1371
     15 C15         0.0412   -1.4176    1.7503 C.3       1 <0>         0.0360
     16 C16         1.8865   -2.9529    2.0632 C.3       1 <0>        -0.0720
     17 C17         0.5665   -3.7001    2.3454 C.3       1 <0>         0.1201
     18 C18         1.0248   -5.1525    0.2868 C.3       1 <0>         0.1453
     19 C19        -3.4345   -0.1597    3.7904 C.3       1 <0>        -0.0968
     20 C20        -3.1391   -2.5257    4.5483 C.3       1 <0>        -0.0986
     21 C21        -5.1165   -3.1339   -2.5686 C.3       1 <0>        -0.0191
     22 C22        -1.8968    1.7896   -1.0188 C.3       1 <0>        -0.1009
     23 C23        -0.4337    2.0012   -1.4250 C.3       1 <0>        -0.0942
     24 C24        -4.1436   -2.0954    2.2850 C.3       1 <0>        -0.0988
     25 C25        -2.7062    3.0733   -1.1890 C.3       1 <0>         0.1966
     26 C26         1.9058    0.9774   -1.7696 C.3       1 <0>         0.1128
     27 C27        -2.8325   -2.1090    1.5076 C.3       1 <0>         0.0786
     28 C28        -3.6869   -2.7967   -2.1325 C.3       1 <0>         0.0744
     29 C29        -4.0154   -1.5731    3.7302 C.3       1 <0>        -0.0678
     30 C30         0.4555    0.7445   -1.3388 C.3       1 <0>         0.1065
     31 N1         -0.4979   -2.7598    1.9615 N.am      1 <0>        -0.4315
     32 N2         -3.3082    5.0008   -4.3753 N.pl3     1 <0>        -0.8671
     33 N3         -4.0986    5.4088   -2.1474 N.pl3     1 <0>        -0.8581
     34 N4          0.4455    0.1980   -0.0008 N.am      1 <0>        -0.5687
     35 N5         -2.9650   -2.6361    0.1813 N.am      1 <0>        -0.5746
     36 N6         -2.6823    3.4930   -2.5701 N.pl3     1 <0>        -0.7533
     37 O1         -0.5362   -1.8555   -0.4928 O.2       1 <0>        -0.5843
     38 O2         -2.2659   -3.9924    2.8322 O.2       1 <0>        -0.6812
     39 O3         -4.3065   -0.9527   -0.6974 O.2       1 <0>        -0.5788
     40 O4         -7.1351   -7.6758    0.1017 O.3       1 <0>        -0.4938
     41 O5          0.9879   -6.5072   -0.1510 O.3       1 <0>        -0.6030
     42 O6          2.6391   -0.2366   -1.6731 O.3       1 <0>        -0.5860
     43 O7         -3.0778   -1.9902   -3.1305 O.3       1 <0>        -0.6021
     44 H1         -4.9329   -5.7289   -3.3485 H         1 <0>         0.1412
     45 H2         -6.4821   -3.2018   -0.2222 H         1 <0>         0.1451
     46 H3         -5.8161   -7.7137   -2.1796 H         1 <0>         0.1336
     47 H4         -7.3646   -5.1892    0.9444 H         1 <0>         0.1567
     48 H5          3.5627   -2.8549    0.7003 H         1 <0>         0.0649
     49 H6          2.0259   -2.5829   -0.0837 H         1 <0>         0.0476
     50 H7          2.8567   -4.7427   -0.7790 H         1 <0>         0.0641
     51 H8          3.1032   -5.2618    0.8729 H         1 <0>         0.0484
     52 H9          2.1569   -0.7868    1.7257 H         1 <0>         0.0596
     53 H10         1.5124   -1.2395    3.3116 H         1 <0>         0.0757
     54 H11         1.0921   -5.7802    2.3299 H         1 <0>         0.0782
     55 H12        -0.5175   -5.5090    1.7393 H         1 <0>         0.0812
     56 H13        -0.5378   -0.6778    2.3126 H         1 <0>         0.0731
     57 H14         2.6304   -3.2407    2.8169 H         1 <0>         0.0511
     58 H15         0.4523   -3.8218    3.4319 H         1 <0>         0.0753
     59 H16         0.3841   -4.5700   -0.3844 H         1 <0>         0.0427
     60 H17        -3.2863    0.1550    4.8292 H         1 <0>         0.0450
     61 H18        -4.1066    0.5680    3.3260 H         1 <0>         0.0406
     62 H19        -2.4667   -0.1061    3.2804 H         1 <0>         0.0274
     63 H20        -2.1236   -2.5806    4.1412 H         1 <0>         0.0476
     64 H21        -3.0691   -2.1929    5.5894 H         1 <0>         0.0170
     65 H22        -3.5594   -3.5370    4.5502 H         1 <0>         0.0477
     66 H23        -5.7798   -2.2797   -2.3772 H         1 <0>         0.0814
     67 H24        -5.1695   -3.3174   -3.6492 H         1 <0>         0.0685
     68 H25        -2.3478    0.9988   -1.6296 H         1 <0>         0.1016
     69 H26        -1.9571    1.4582    0.0248 H         1 <0>         0.0660
     70 H27         0.0021    2.7844   -0.7898 H         1 <0>         0.0512
     71 H28        -0.4008    2.3932   -2.4497 H         1 <0>         0.0454
     72 H29        -4.5642   -3.1100    2.3009 H         1 <0>         0.0575
     73 H30        -4.8775   -1.4748    1.7520 H         1 <0>         0.0743
     74 H31        -2.2897    3.8707   -0.5646 H         1 <0>         0.0662
     75 H32        -3.7451    2.9157   -0.8815 H         1 <0>         0.0622
     76 H33         2.4001    1.7344   -1.1517 H         1 <0>         0.0321
     77 H34         1.9468    1.3120   -2.8125 H         1 <0>         0.0204
     78 H35        -2.3644   -1.1272    1.4485 H         1 <0>         0.0749
     79 H36        -3.0804   -3.7010   -2.0039 H         1 <0>         0.0719
     80 H37        -5.0090   -1.5561    4.1946 H         1 <0>         0.0609
     81 H38         0.0149    0.0012   -2.0158 H         1 <0>         0.1063
     82 H39        -2.7804    4.4652   -5.0593 H         1 <0>         0.4792
     83 H40        -3.7995    5.8263   -4.7102 H         1 <0>         0.4819
     84 H41        -4.1585    5.1685   -1.1609 H         1 <0>         0.4802
     85 H42        -4.5986    6.2369   -2.4619 H         1 <0>         0.4826
     86 H43         0.8216    0.7626    0.7549 H         1 <0>         0.3101
     87 H44        -2.4970   -3.5171   -0.0370 H         1 <0>         0.3087
     88 H45        -2.1531    2.9563   -3.2681 H         1 <0>         0.4846
     89 H46        -6.5600   -8.4417   -0.0547 H         1 <0>         0.4194
     90 H47         1.8515   -6.8926    0.0654 H         1 <0>         0.4036
     91 H48         2.8853   -0.3414   -0.7399 H         1 <0>         0.4114
     92 H49        -3.6213   -2.0752   -3.9308 H         1 <0>         0.3944
@<TRIPOS>BOND
     1    1    3 ar
     2    1    5 ar
     3    2    4 ar
     4    2    5 ar
     5    3    6 ar
     6    4    6 ar
     7    5   21 1
     8    6   40 1
     9    7   15 1
    10    7   34 am
    11    7   37 2
    12    8   27 1
    13    8   31 am
    14    8   38 2
    15    9   28 1
    16    9   35 am
    17    9   39 2
    18   10   32 1
    19   10   33 1
    20   10   36 1
    21   11   12 1
    22   11   16 1
    23   12   18 1
    24   13   15 1
    25   13   16 1
    26   14   17 1
    27   14   18 1
    28   15   31 1
    29   16   17 1
    30   17   31 1
    31   18   41 1
    32   19   29 1
    33   20   29 1
    34   21   28 1
    35   22   23 1
    36   22   25 1
    37   23   30 1
    38   24   27 1
    39   24   29 1
    40   25   36 1
    41   26   30 1
    42   26   42 1
    43   27   35 1
    44   28   43 1
    45   30   34 1
    46    1   44 1
    47    2   45 1
    48    3   46 1
    49    4   47 1
    50   11   48 1
    51   11   49 1
    52   12   50 1
    53   12   51 1
    54   13   52 1
    55   13   53 1
    56   14   54 1
    57   14   55 1
    58   15   56 1
    59   16   57 1
    60   17   58 1
    61   18   59 1
    62   19   60 1
    63   19   61 1
    64   19   62 1
    65   20   63 1
    66   20   64 1
    67   20   65 1
    68   21   66 1
    69   21   67 1
    70   22   68 1
    71   22   69 1
    72   23   70 1
    73   23   71 1
    74   24   72 1
    75   24   73 1
    76   25   74 1
    77   25   75 1
    78   26   76 1
    79   26   77 1
    80   27   78 1
    81   28   79 1
    82   29   80 1
    83   30   81 1
    84   32   82 1
    85   32   83 1
    86   33   84 1
    87   33   85 1
    88   34   86 1
    89   35   87 1
    90   36   88 1
    91   40   89 1
    92   41   90 1
    93   42   91 1
    94   43   92 1
@<TRIPOS>MOLECULE
1a2c_ligand_234
   92    94     0     0     0
SMALL
USER_CHARGES

mmff94s_NoEstat = 122.73
@<TRIPOS>ATOM
      1 C1         -6.7567   -4.6738   -3.5933 C.ar      1 <0>        -0.0708
      2 C2         -7.3456   -4.9208   -1.2633 C.ar      1 <0>        -0.0872
      3 C3         -7.6642   -5.6785   -3.9292 C.ar      1 <0>        -0.2241
      4 C4         -8.2530   -5.9255   -1.5991 C.ar      1 <0>        -0.1600
      5 C5         -6.6096   -4.3084   -2.2649 C.ar      1 <0>        -0.1356
      6 C6         -8.4124   -6.3044   -2.9320 C.ar      1 <0>         0.1290
      7 C7         -0.0512   -1.0561    0.2993 C.2       1 <0>         0.6664
      8 C8         -1.8469   -3.0457    2.1630 C.2       1 <0>         0.6651
      9 C9         -3.4040   -2.7670   -0.8258 C.2       1 <0>         0.6454
     10 C10        -5.0757    2.4382   -1.6891 C.cat     1 <0>         0.6349
     11 C11         2.5186   -3.1911    0.6823 C.3       1 <0>        -0.0642
     12 C12         2.4580   -4.6414    0.2376 C.3       1 <0>        -0.0747
     13 C13         1.4874   -1.4827    2.2418 C.3       1 <0>        -0.0873
     14 C14         0.4946   -5.0934    1.7133 C.3       1 <0>        -0.1371
     15 C15         0.0412   -1.4176    1.7503 C.3       1 <0>         0.0360
     16 C16         1.8865   -2.9529    2.0632 C.3       1 <0>        -0.0720
     17 C17         0.5665   -3.7001    2.3454 C.3       1 <0>         0.1201
     18 C18         1.0248   -5.1525    0.2868 C.3       1 <0>         0.1453
     19 C19        -5.7275   -1.2982    0.9287 C.3       1 <0>        -0.0968
     20 C20        -4.2097    0.6462    1.3473 C.3       1 <0>        -0.0986
     21 C21        -5.6277   -3.2203   -1.9015 C.3       1 <0>        -0.0191
     22 C22        -1.8968    1.7896   -1.0188 C.3       1 <0>        -0.1009
     23 C23        -0.4337    2.0012   -1.4250 C.3       1 <0>        -0.0942
     24 C24        -3.7699   -1.5150    2.5525 C.3       1 <0>        -0.0988
     25 C25        -2.7062    3.0733   -1.1890 C.3       1 <0>         0.1966
     26 C26         1.9058    0.9774   -1.7696 C.3       1 <0>         0.1128
     27 C27        -2.8325   -2.1090    1.5076 C.3       1 <0>         0.0786
     28 C28        -4.2317   -3.7794   -1.6077 C.3       1 <0>         0.0744
     29 C29        -4.8597   -0.5919    1.9712 C.3       1 <0>        -0.0678
     30 C30         0.4555    0.7445   -1.3388 C.3       1 <0>         0.1065
     31 N1         -0.4979   -2.7598    1.9615 N.am      1 <0>        -0.4315
     32 N2         -6.3830    2.2332   -1.2604 N.pl3     1 <0>        -0.8671
     33 N3         -4.7607    2.2305   -3.0276 N.pl3     1 <0>        -0.8581
     34 N4          0.4455    0.1980   -0.0008 N.am      1 <0>        -0.5687
     35 N5         -3.5026   -2.9419    0.5527 N.am      1 <0>        -0.5746
     36 N6         -4.0759    2.8502   -0.7911 N.pl3     1 <0>        -0.7533
     37 O1         -0.5362   -1.8555   -0.4928 O.2       1 <0>        -0.5843
     38 O2         -2.2659   -3.9924    2.8322 O.2       1 <0>        -0.6812
     39 O3         -2.7407   -1.8909   -1.3761 O.2       1 <0>        -0.5788
     40 O4         -9.2991   -7.2836   -3.2599 O.3       1 <0>        -0.4938
     41 O5          0.9879   -6.5072   -0.1510 O.3       1 <0>        -0.6030
     42 O6          2.6391   -0.2366   -1.6731 O.3       1 <0>        -0.5860
     43 O7         -3.5703   -4.0395   -2.8375 O.3       1 <0>        -0.6021
     44 H1         -6.1783   -4.1922   -4.3770 H         1 <0>         0.1412
     45 H2         -7.2282   -4.6319   -0.2220 H         1 <0>         0.1451
     46 H3         -7.7839   -5.9690   -4.9692 H         1 <0>         0.1336
     47 H4         -8.8337   -6.4088   -0.8178 H         1 <0>         0.1567
     48 H5          3.5627   -2.8549    0.7003 H         1 <0>         0.0649
     49 H6          2.0259   -2.5829   -0.0837 H         1 <0>         0.0476
     50 H7          2.8567   -4.7427   -0.7790 H         1 <0>         0.0641
     51 H8          3.1032   -5.2618    0.8729 H         1 <0>         0.0484
     52 H9          2.1569   -0.7868    1.7257 H         1 <0>         0.0596
     53 H10         1.5124   -1.2395    3.3116 H         1 <0>         0.0757
     54 H11         1.0921   -5.7802    2.3299 H         1 <0>         0.0782
     55 H12        -0.5175   -5.5090    1.7393 H         1 <0>         0.0812
     56 H13        -0.5378   -0.6778    2.3126 H         1 <0>         0.0731
     57 H14         2.6304   -3.2407    2.8169 H         1 <0>         0.0511
     58 H15         0.4523   -3.8218    3.4319 H         1 <0>         0.0753
     59 H16         0.3841   -4.5700   -0.3844 H         1 <0>         0.0427
     60 H17        -6.4424   -0.5993    0.4810 H         1 <0>         0.0450
     61 H18        -6.3080   -2.1101    1.3767 H         1 <0>         0.0406
     62 H19        -5.1167   -1.7184    0.1225 H         1 <0>         0.0274
     63 H20        -3.5507    0.3732    0.5159 H         1 <0>         0.0476
     64 H21        -4.9709    1.3343    0.9644 H         1 <0>         0.0170
     65 H22        -3.6139    1.1889    2.0888 H         1 <0>         0.0477
     66 H23        -6.0051   -2.6719   -1.0280 H         1 <0>         0.0814
     67 H24        -5.5997   -2.4925   -2.7222 H         1 <0>         0.0685
     68 H25        -2.3478    0.9988   -1.6296 H         1 <0>         0.1016
     69 H26        -1.9571    1.4582    0.0248 H         1 <0>         0.0660
     70 H27         0.0021    2.7844   -0.7898 H         1 <0>         0.0512
     71 H28        -0.4008    2.3932   -2.4497 H         1 <0>         0.0454
     72 H29        -3.1790   -0.9587    3.2928 H         1 <0>         0.0575
     73 H30        -4.2588   -2.3274    3.1083 H         1 <0>         0.0743
     74 H31        -2.6850    3.4001   -2.2340 H         1 <0>         0.0662
     75 H32        -2.2833    3.8776   -0.5783 H         1 <0>         0.0622
     76 H33         2.4001    1.7344   -1.1517 H         1 <0>         0.0321
     77 H34         1.9468    1.3120   -2.8125 H         1 <0>         0.0204
     78 H35        -2.2612   -1.3523    0.9714 H         1 <0>         0.0749
     79 H36        -4.2834   -4.7163   -1.0404 H         1 <0>         0.0719
     80 H37        -5.5109   -0.2494    2.7849 H         1 <0>         0.0609
     81 H38         0.0149    0.0012   -2.0158 H         1 <0>         0.1063
     82 H39        -6.6589    2.3706   -0.2918 H         1 <0>         0.4792
     83 H40        -7.1055    1.9344   -1.9114 H         1 <0>         0.4819
     84 H41        -3.8150    2.3710   -3.3746 H         1 <0>         0.4802
     85 H42        -5.4684    1.9335   -3.6951 H         1 <0>         0.4826
     86 H43         0.8216    0.7626    0.7549 H         1 <0>         0.3101
     87 H44        -4.0841   -3.7053    0.9020 H         1 <0>         0.3087
     88 H45        -4.3634    2.9888    0.1853 H         1 <0>         0.4846
     89 H46        -8.9810   -7.7812   -4.0301 H         1 <0>         0.4194
     90 H47         1.8515   -6.8926    0.0654 H         1 <0>         0.4036
     91 H48         2.8853   -0.3414   -0.7399 H         1 <0>         0.4114
     92 H49        -4.2525   -4.0407   -3.5287 H         1 <0>         0.3944
@<TRIPOS>BOND
     1    1    3 ar
     2    1    5 ar
     3    2    4 ar
     4    2    5 ar
     5    3    6 ar
     6    4    6 ar
     7    5   21 1
     8    6   40 1
     9    7   15 1
    10    7   34 am
    11    7   37 2
    12    8   27 1
    13    8   31 am
    14    8   38 2
    15    9   28 1
    16    9   35 am
    17    9   39 2
    18   10   32 1
    19   10   33 1
    20   10   36 1
    21   11   12 1
    22   11   16 1
    23   12   18 1
    24   13   15 1
    25   13   16 1
    26   14   17 1
    27   14   18 1
    28   15   31 1
    29   16   17 1
    30   17   31 1
    31   18   41 1
    32   19   29 1
    33   20   29 1
    34   21   28 1
    35   22   23 1
    36   22   25 1
    37   23   30 1
    38   24   27 1
    39   24   29 1
    40   25   36 1
    41   26   30 1
    42   26   42 1
    43   27   35 1
    44   28   43 1
    45   30   34 1
    46    1   44 1
    47    2   45 1
    48    3   46 1
    49    4   47 1
    50   11   48 1
    51   11   49 1
    52   12   50 1
    53   12   51 1
    54   13   52 1
    55   13   53 1
    56   14   54 1
    57   14   55 1
    58   15   56 1
    59   16   57 1
    60   17   58 1
    61   18   59 1
    62   19   60 1
    63   19   61 1
    64   19   62 1
    65   20   63 1
    66   20   64 1
    67   20   65 1
    68   21   66 1
    69   21   67 1
    70   22   68 1
    71   22   69 1
    72   23   70 1
    73   23   71 1
    74   24   72 1
    75   24   73 1
    76   25   74 1
    77   25   75 1
    78   26   76 1
    79   26   77 1
    80   27   78 1
    81   28   79 1
    82   29   80 1
    83   30   81 1
    84   32   82 1
    85   32   83 1
    86   33   84 1
    87   33   85 1
    88   34   86 1
    89   35   87 1
    90   36   88 1
    91   40   89 1
    92   41   90 1
    93   42   91 1
    94   43   92 1
@<TRIPOS>MOLECULE
1a2c_ligand_235
   92    94     0     0     0
SMALL
USER_CHARGES

mmff94s_NoEstat = 122.74
@<TRIPOS>ATOM
      1 C1         -5.7422   -5.3815   -1.6705 C.ar      1 <0>        -0.0708
      2 C2         -6.5525   -3.4058   -0.5402 C.ar      1 <0>        -0.0872
      3 C3         -6.3995   -6.1843   -0.7383 C.ar      1 <0>        -0.2241
      4 C4         -7.2098   -4.2087    0.3920 C.ar      1 <0>        -0.1600
      5 C5         -5.8276   -4.0030   -1.5590 C.ar      1 <0>        -0.1356
      6 C6         -7.1333   -5.5980    0.2930 C.ar      1 <0>         0.1290
      7 C7         -0.0512   -1.0561    0.2993 C.2       1 <0>         0.6664
      8 C8         -1.8469   -3.0457    2.1630 C.2       1 <0>         0.6651
      9 C9         -3.6974   -2.0123   -0.8263 C.2       1 <0>         0.6454
     10 C10        -3.3294    2.0808   -3.5565 C.cat     1 <0>         0.6349
     11 C11         2.5186   -3.1911    0.6823 C.3       1 <0>        -0.0642
     12 C12         2.4580   -4.6414    0.2376 C.3       1 <0>        -0.0747
     13 C13         1.4874   -1.4827    2.2418 C.3       1 <0>        -0.0873
     14 C14         0.4946   -5.0934    1.7133 C.3       1 <0>        -0.1371
     15 C15         0.0412   -1.4176    1.7503 C.3       1 <0>         0.0360
     16 C16         1.8865   -2.9529    2.0632 C.3       1 <0>        -0.0720
     17 C17         0.5665   -3.7001    2.3454 C.3       1 <0>         0.1201
     18 C18         1.0248   -5.1525    0.2868 C.3       1 <0>         0.1453
     19 C19        -3.4345   -0.1597    3.7904 C.3       1 <0>        -0.0968
     20 C20        -3.1391   -2.5257    4.5483 C.3       1 <0>        -0.0986
     21 C21        -5.1165   -3.1339   -2.5686 C.3       1 <0>        -0.0191
     22 C22        -1.0374    2.7415   -0.6235 C.3       1 <0>        -0.1009
     23 C23         0.2513    2.2726   -1.3090 C.3       1 <0>        -0.0942
     24 C24        -4.1436   -2.0954    2.2850 C.3       1 <0>        -0.0988
     25 C25        -2.2684    2.1304   -1.2894 C.3       1 <0>         0.1966
     26 C26         1.7383    0.3016   -2.0469 C.3       1 <0>         0.1128
     27 C27        -2.8325   -2.1090    1.5076 C.3       1 <0>         0.0786
     28 C28        -3.6869   -2.7967   -2.1325 C.3       1 <0>         0.0744
     29 C29        -4.0154   -1.5731    3.7302 C.3       1 <0>        -0.0678
     30 C30         0.4555    0.7445   -1.3388 C.3       1 <0>         0.1065
     31 N1         -0.4979   -2.7598    1.9615 N.am      1 <0>        -0.4315
     32 N2         -3.3390    2.4766   -4.8899 N.pl3     1 <0>        -0.8671
     33 N3         -4.3382    1.2447   -3.0902 N.pl3     1 <0>        -0.8581
     34 N4          0.4455    0.1980   -0.0008 N.am      1 <0>        -0.5687
     35 N5         -2.9650   -2.6361    0.1813 N.am      1 <0>        -0.5746
     36 N6         -2.3186    2.5130   -2.6805 N.pl3     1 <0>        -0.7533
     37 O1         -0.5362   -1.8555   -0.4928 O.2       1 <0>        -0.5843
     38 O2         -2.2659   -3.9924    2.8322 O.2       1 <0>        -0.6812
     39 O3         -4.3065   -0.9527   -0.6974 O.2       1 <0>        -0.5788
     40 O4         -7.7760   -6.3814    1.2017 O.3       1 <0>        -0.4938
     41 O5          0.9879   -6.5072   -0.1510 O.3       1 <0>        -0.6030
     42 O6          2.8703    0.8436   -1.3793 O.3       1 <0>        -0.5860
     43 O7         -3.0778   -1.9902   -3.1305 O.3       1 <0>        -0.6021
     44 H1         -5.1729   -5.8474   -2.4702 H         1 <0>         0.1412
     45 H2         -6.6178   -2.3242   -0.4555 H         1 <0>         0.1451
     46 H3         -6.3363   -7.2658   -0.8208 H         1 <0>         0.1336
     47 H4         -7.7807   -3.7459    1.1926 H         1 <0>         0.1567
     48 H5          3.5627   -2.8549    0.7003 H         1 <0>         0.0649
     49 H6          2.0259   -2.5829   -0.0837 H         1 <0>         0.0476
     50 H7          2.8567   -4.7427   -0.7790 H         1 <0>         0.0641
     51 H8          3.1032   -5.2618    0.8729 H         1 <0>         0.0484
     52 H9          2.1569   -0.7868    1.7257 H         1 <0>         0.0596
     53 H10         1.5124   -1.2395    3.3116 H         1 <0>         0.0757
     54 H11         1.0921   -5.7802    2.3299 H         1 <0>         0.0782
     55 H12        -0.5175   -5.5090    1.7393 H         1 <0>         0.0812
     56 H13        -0.5378   -0.6778    2.3126 H         1 <0>         0.0731
     57 H14         2.6304   -3.2407    2.8169 H         1 <0>         0.0511
     58 H15         0.4523   -3.8218    3.4319 H         1 <0>         0.0753
     59 H16         0.3841   -4.5700   -0.3844 H         1 <0>         0.0427
     60 H17        -3.2863    0.1550    4.8292 H         1 <0>         0.0450
     61 H18        -4.1066    0.5680    3.3260 H         1 <0>         0.0406
     62 H19        -2.4667   -0.1061    3.2804 H         1 <0>         0.0274
     63 H20        -2.1236   -2.5806    4.1412 H         1 <0>         0.0476
     64 H21        -3.0691   -2.1929    5.5894 H         1 <0>         0.0170
     65 H22        -3.5594   -3.5370    4.5502 H         1 <0>         0.0477
     66 H23        -5.6922   -2.2106   -2.7177 H         1 <0>         0.0814
     67 H24        -5.1252   -3.6512   -3.5363 H         1 <0>         0.0685
     68 H25        -1.0263    2.4588    0.4356 H         1 <0>         0.1016
     69 H26        -1.1105    3.8350   -0.6596 H         1 <0>         0.0660
     70 H27         1.1110    2.7323   -0.8028 H         1 <0>         0.0512
     71 H28         0.2685    2.6560   -2.3373 H         1 <0>         0.0454
     72 H29        -4.5642   -3.1100    2.3009 H         1 <0>         0.0575
     73 H30        -4.8775   -1.4748    1.7520 H         1 <0>         0.0743
     74 H31        -3.1804    2.4738   -0.7898 H         1 <0>         0.0662
     75 H32        -2.2399    1.0381   -1.2201 H         1 <0>         0.0622
     76 H33         1.7614    0.6251   -3.0928 H         1 <0>         0.0321
     77 H34         1.8289   -0.7905   -2.0281 H         1 <0>         0.0204
     78 H35        -2.3644   -1.1272    1.4485 H         1 <0>         0.0749
     79 H36        -3.0804   -3.7010   -2.0039 H         1 <0>         0.0719
     80 H37        -5.0090   -1.5561    4.1946 H         1 <0>         0.0609
     81 H38        -0.3978    0.3245   -1.8868 H         1 <0>         0.1063
     82 H39        -2.6237    3.0881   -5.2742 H         1 <0>         0.4792
     83 H40        -4.0716    2.1635   -5.5226 H         1 <0>         0.4819
     84 H41        -4.3615    0.9362   -2.1213 H         1 <0>         0.4802
     85 H42        -5.0788    0.9188   -3.7066 H         1 <0>         0.4826
     86 H43         0.8216    0.7626    0.7549 H         1 <0>         0.3101
     87 H44        -2.4970   -3.5171   -0.0370 H         1 <0>         0.3087
     88 H45        -1.5986    3.1289   -3.0773 H         1 <0>         0.4846
     89 H46        -7.2802   -7.2027    1.3480 H         1 <0>         0.4194
     90 H47         1.8515   -6.8926    0.0654 H         1 <0>         0.4036
     91 H48         2.9636    1.7601   -1.6856 H         1 <0>         0.4114
     92 H49        -3.6213   -2.0752   -3.9308 H         1 <0>         0.3944
@<TRIPOS>BOND
     1    1    3 ar
     2    1    5 ar
     3    2    4 ar
     4    2    5 ar
     5    3    6 ar
     6    4    6 ar
     7    5   21 1
     8    6   40 1
     9    7   15 1
    10    7   34 am
    11    7   37 2
    12    8   27 1
    13    8   31 am
    14    8   38 2
    15    9   28 1
    16    9   35 am
    17    9   39 2
    18   10   32 1
    19   10   33 1
    20   10   36 1
    21   11   12 1
    22   11   16 1
    23   12   18 1
    24   13   15 1
    25   13   16 1
    26   14   17 1
    27   14   18 1
    28   15   31 1
    29   16   17 1
    30   17   31 1
    31   18   41 1
    32   19   29 1
    33   20   29 1
    34   21   28 1
    35   22   23 1
    36   22   25 1
    37   23   30 1
    38   24   27 1
    39   24   29 1
    40   25   36 1
    41   26   30 1
    42   26   42 1
    43   27   35 1
    44   28   43 1
    45   30   34 1
    46    1   44 1
    47    2   45 1
    48    3   46 1
    49    4   47 1
    50   11   48 1
    51   11   49 1
    52   12   50 1
    53   12   51 1
    54   13   52 1
    55   13   53 1
    56   14   54 1
    57   14   55 1
    58   15   56 1
    59   16   57 1
    60   17   58 1
    61   18   59 1
    62   19   60 1
    63   19   61 1
    64   19   62 1
    65   20   63 1
    66   20   64 1
    67   20   65 1
    68   21   66 1
    69   21   67 1
    70   22   68 1
    71   22   69 1
    72   23   70 1
    73   23   71 1
    74   24   72 1
    75   24   73 1
    76   25   74 1
    77   25   75 1
    78   26   76 1
    79   26   77 1
    80   27   78 1
    81   28   79 1
    82   29   80 1
    83   30   81 1
    84   32   82 1
    85   32   83 1
    86   33   84 1
    87   33   85 1
    88   34   86 1
    89   35   87 1
    90   36   88 1
    91   40   89 1
    92   41   90 1
    93   42   91 1
    94   43   92 1
@<TRIPOS>MOLECULE
1a2c_ligand_236
   92    94     0     0     0
SMALL
USER_CHARGES

mmff94s_NoEstat = 122.77
@<TRIPOS>ATOM
      1 C1         -8.5516    0.4596   -1.7234 C.ar      1 <0>        -0.0708
      2 C2         -6.5784    1.6634   -1.0203 C.ar      1 <0>        -0.0872
      3 C3         -9.3358    1.2599   -0.8927 C.ar      1 <0>        -0.2241
      4 C4         -7.3626    2.4638   -0.1897 C.ar      1 <0>        -0.1600
      5 C5         -7.1834    0.6721   -1.7761 C.ar      1 <0>        -0.1356
      6 C6         -8.7413    2.2621   -0.1258 C.ar      1 <0>         0.1290
      7 C7         -0.1674   -1.0853   -0.0424 C.2       1 <0>         0.6664
      8 C8         -2.5997   -3.1326    0.7250 C.2       1 <0>         0.6651
      9 C9         -4.5933   -1.1215   -1.1219 C.2       1 <0>         0.6454
     10 C10        -4.0230    4.8593   -0.5228 C.cat     1 <0>         0.6349
     11 C11         2.0445   -3.7524    0.2047 C.3       1 <0>        -0.0642
     12 C12         2.1951   -5.1517   -0.3975 C.3       1 <0>        -0.0747
     13 C13         0.7864   -2.3272    1.9103 C.3       1 <0>        -0.0873
     14 C14        -0.3466   -4.9962   -0.4055 C.3       1 <0>        -0.1371
     15 C15        -0.4770   -1.8334    1.2187 C.3       1 <0>         0.0360
     16 C16         1.0305   -3.7327    1.3503 C.3       1 <0>        -0.0720
     17 C17        -0.3661   -4.2312    0.9284 C.3       1 <0>         0.1201
     18 C18         0.8694   -5.9135   -0.5141 C.3       1 <0>         0.1453
     19 C19        -5.9631   -0.4404    1.7581 C.3       1 <0>        -0.0968
     20 C20        -3.8887    0.7550    2.4841 C.3       1 <0>        -0.0986
     21 C21        -6.3345   -0.1939   -2.6760 C.3       1 <0>        -0.0191
     22 C22        -1.2290    2.3228   -0.7494 C.3       1 <0>        -0.1009
     23 C23         0.3037    2.3337   -0.7876 C.3       1 <0>        -0.0942
     24 C24        -3.8619   -1.7555    2.3678 C.3       1 <0>        -0.0988
     25 C25        -1.7874    3.7418   -0.6680 C.3       1 <0>         0.1966
     26 C26         2.4918    0.9866   -0.9811 C.3       1 <0>         0.1128
     27 C27        -3.3800   -1.8574    0.9254 C.3       1 <0>         0.0786
     28 C28        -5.8260   -1.4472   -1.9560 C.3       1 <0>         0.0744
     29 C29        -4.7285   -0.5135    2.6578 C.3       1 <0>        -0.0678
     30 C30         0.9627    0.9465   -0.9241 C.3       1 <0>         0.1065
     31 N1         -1.2224   -3.0398    0.8850 N.am      1 <0>        -0.4315
     32 N2         -5.4109    4.7746   -0.4851 N.pl3     1 <0>        -0.8671
     33 N3         -3.4182    6.1100   -0.4594 N.pl3     1 <0>        -0.8581
     34 N4          0.5562    0.0753    0.1551 N.am      1 <0>        -0.5687
     35 N5         -4.4491   -1.9660   -0.0233 N.am      1 <0>        -0.5746
     36 N6         -3.2298    3.7033   -0.6234 N.pl3     1 <0>        -0.7533
     37 O1         -0.5544   -1.5275   -1.1177 O.2       1 <0>        -0.5843
     38 O2         -3.1933   -4.1752    0.4418 O.2       1 <0>        -0.6812
     39 O3         -3.8320   -0.1982   -1.4017 O.2       1 <0>        -0.5788
     40 O4         -9.5068    3.0441    0.6836 O.3       1 <0>        -0.4938
     41 O5          0.7872   -6.8901    0.5248 O.3       1 <0>        -0.6030
     42 O6          2.9134    1.7720   -2.0885 O.3       1 <0>        -0.5860
     43 O7         -5.4630   -2.4207   -2.9245 O.3       1 <0>        -0.6021
     44 H1         -9.0236   -0.3186   -2.3169 H         1 <0>         0.1412
     45 H2         -5.5048    1.8280   -1.0640 H         1 <0>         0.1451
     46 H3        -10.4091    1.0980   -0.8474 H         1 <0>         0.1336
     47 H4         -6.8937    3.2435    0.4047 H         1 <0>         0.1567
     48 H5          3.0220   -3.4003    0.5555 H         1 <0>         0.0649
     49 H6          1.7363   -3.0584   -0.5866 H         1 <0>         0.0476
     50 H7          2.6388   -5.0399   -1.3944 H         1 <0>         0.0641
     51 H8          2.9088   -5.7297    0.2024 H         1 <0>         0.0484
     52 H9          1.6439   -1.6583    1.7836 H         1 <0>         0.0596
     53 H10         0.5887   -2.4119    2.9867 H         1 <0>         0.0757
     54 H11        -1.2632   -5.5927   -0.4872 H         1 <0>         0.0782
     55 H12        -0.3526   -4.2949   -1.2498 H         1 <0>         0.0812
     56 H13        -1.0651   -1.1731    1.8629 H         1 <0>         0.0731
     57 H14         1.4245   -4.3763    2.1480 H         1 <0>         0.0511
     58 H15        -0.7725   -4.8823    1.7135 H         1 <0>         0.0753
     59 H16         0.8433   -6.4624   -1.4612 H         1 <0>         0.0427
     60 H17        -6.5181    0.4873    1.9352 H         1 <0>         0.0450
     61 H18        -6.6497   -1.2692    1.9547 H         1 <0>         0.0406
     62 H19        -5.6850   -0.4702    0.6992 H         1 <0>         0.0274
     63 H20        -3.5277    0.8553    1.4548 H         1 <0>         0.0476
     64 H21        -4.4764    1.6472    2.7254 H         1 <0>         0.0170
     65 H22        -3.0188    0.7404    3.1493 H         1 <0>         0.0477
     66 H23        -5.4866    0.3964   -3.0483 H         1 <0>         0.0814
     67 H24        -6.9273   -0.4570   -3.5611 H         1 <0>         0.0685
     68 H25        -1.6256    1.8333   -1.6465 H         1 <0>         0.1016
     69 H26        -1.5833    1.7433    0.1115 H         1 <0>         0.0660
     70 H27         0.6789    2.8127    0.1271 H         1 <0>         0.0512
     71 H28         0.6355    2.9707   -1.6175 H         1 <0>         0.0454
     72 H29        -2.9928   -1.7573    3.0396 H         1 <0>         0.0575
     73 H30        -4.4407   -2.6540    2.6237 H         1 <0>         0.0743
     74 H31        -1.4709    4.3252   -1.5390 H         1 <0>         0.0662
     75 H32        -1.4158    4.2497    0.2279 H         1 <0>         0.0622
     76 H33         2.9245   -0.0146   -1.0780 H         1 <0>         0.0321
     77 H34         2.8974    1.4443   -0.0716 H         1 <0>         0.0204
     78 H35        -2.7366   -1.0282    0.6336 H         1 <0>         0.0749
     79 H36        -6.5960   -1.8796   -1.3060 H         1 <0>         0.0719
     80 H37        -5.0656   -0.5471    3.7011 H         1 <0>         0.0609
     81 H38         0.5984    0.5173   -1.8665 H         1 <0>         0.1063
     82 H39        -5.8963    3.8827   -0.5307 H         1 <0>         0.4792
     83 H40        -5.9837    5.6123   -0.4129 H         1 <0>         0.4819
     84 H41        -2.4061    6.2082   -0.4845 H         1 <0>         0.4802
     85 H42        -3.9724    6.9597   -0.3851 H         1 <0>         0.4826
     86 H43         0.8147    0.3282    1.1041 H         1 <0>         0.3101
     87 H44        -5.1428   -2.7027    0.1135 H         1 <0>         0.3087
     88 H45        -3.7281    2.8060   -0.6668 H         1 <0>         0.4846
     89 H46       -10.2616    2.5380    1.0243 H         1 <0>         0.4194
     90 H47         1.3049   -6.5470    1.2701 H         1 <0>         0.4036
     91 H48         2.8536    1.2039   -2.8734 H         1 <0>         0.4114
     92 H49        -5.8649   -2.1450   -3.7644 H         1 <0>         0.3944
@<TRIPOS>BOND
     1    1    3 ar
     2    1    5 ar
     3    2    4 ar
     4    2    5 ar
     5    3    6 ar
     6    4    6 ar
     7    5   21 1
     8    6   40 1
     9    7   15 1
    10    7   34 am
    11    7   37 2
    12    8   27 1
    13    8   31 am
    14    8   38 2
    15    9   28 1
    16    9   35 am
    17    9   39 2
    18   10   32 1
    19   10   33 1
    20   10   36 1
    21   11   12 1
    22   11   16 1
    23   12   18 1
    24   13   15 1
    25   13   16 1
    26   14   17 1
    27   14   18 1
    28   15   31 1
    29   16   17 1
    30   17   31 1
    31   18   41 1
    32   19   29 1
    33   20   29 1
    34   21   28 1
    35   22   23 1
    36   22   25 1
    37   23   30 1
    38   24   27 1
    39   24   29 1
    40   25   36 1
    41   26   30 1
    42   26   42 1
    43   27   35 1
    44   28   43 1
    45   30   34 1
    46    1   44 1
    47    2   45 1
    48    3   46 1
    49    4   47 1
    50   11   48 1
    51   11   49 1
    52   12   50 1
    53   12   51 1
    54   13   52 1
    55   13   53 1
    56   14   54 1
    57   14   55 1
    58   15   56 1
    59   16   57 1
    60   17   58 1
    61   18   59 1
    62   19   60 1
    63   19   61 1
    64   19   62 1
    65   20   63 1
    66   20   64 1
    67   20   65 1
    68   21   66 1
    69   21   67 1
    70   22   68 1
    71   22   69 1
    72   23   70 1
    73   23   71 1
    74   24   72 1
    75   24   73 1
    76   25   74 1
    77   25   75 1
    78   26   76 1
    79   26   77 1
    80   27   78 1
    81   28   79 1
    82   29   80 1
    83   30   81 1
    84   32   82 1
    85   32   83 1
    86   33   84 1
    87   33   85 1
    88   34   86 1
    89   35   87 1
    90   36   88 1
    91   40   89 1
    92   41   90 1
    93   42   91 1
    94   43   92 1
@<TRIPOS>MOLECULE
1a2c_ligand_237
   92    94     0     0     0
SMALL
USER_CHARGES

mmff94s_NoEstat = 122.81
@<TRIPOS>ATOM
      1 C1         -5.7422   -5.3815   -1.6705 C.ar      1 <0>        -0.0708
      2 C2         -6.5525   -3.4058   -0.5402 C.ar      1 <0>        -0.0872
      3 C3         -6.3995   -6.1843   -0.7383 C.ar      1 <0>        -0.2241
      4 C4         -7.2098   -4.2087    0.3920 C.ar      1 <0>        -0.1600
      5 C5         -5.8276   -4.0030   -1.5590 C.ar      1 <0>        -0.1356
      6 C6         -7.1333   -5.5980    0.2930 C.ar      1 <0>         0.1290
      7 C7         -0.0512   -1.0561    0.2993 C.2       1 <0>         0.6664
      8 C8         -1.8469   -3.0457    2.1630 C.2       1 <0>         0.6651
      9 C9         -3.6974   -2.0123   -0.8263 C.2       1 <0>         0.6454
     10 C10        -2.6672    5.4277   -0.3386 C.cat     1 <0>         0.6349
     11 C11         2.5186   -3.1911    0.6823 C.3       1 <0>        -0.0642
     12 C12         2.4580   -4.6414    0.2376 C.3       1 <0>        -0.0747
     13 C13         1.4874   -1.4827    2.2418 C.3       1 <0>        -0.0873
     14 C14         0.4946   -5.0934    1.7133 C.3       1 <0>        -0.1371
     15 C15         0.0412   -1.4176    1.7503 C.3       1 <0>         0.0360
     16 C16         1.8865   -2.9529    2.0632 C.3       1 <0>        -0.0720
     17 C17         0.5665   -3.7001    2.3454 C.3       1 <0>         0.1201
     18 C18         1.0248   -5.1525    0.2868 C.3       1 <0>         0.1453
     19 C19        -3.4345   -0.1597    3.7904 C.3       1 <0>        -0.0968
     20 C20        -3.1391   -2.5257    4.5483 C.3       1 <0>        -0.0986
     21 C21        -5.1165   -3.1339   -2.5686 C.3       1 <0>        -0.0191
     22 C22        -1.8968    1.7896   -1.0188 C.3       1 <0>        -0.1009
     23 C23        -0.4337    2.0012   -1.4250 C.3       1 <0>        -0.0942
     24 C24        -4.1436   -2.0954    2.2850 C.3       1 <0>        -0.0988
     25 C25        -2.7062    3.0733   -1.1890 C.3       1 <0>         0.1966
     26 C26         1.9058    0.9774   -1.7696 C.3       1 <0>         0.1128
     27 C27        -2.8325   -2.1090    1.5076 C.3       1 <0>         0.0786
     28 C28        -3.6869   -2.7967   -2.1325 C.3       1 <0>         0.0744
     29 C29        -4.0154   -1.5731    3.7302 C.3       1 <0>        -0.0678
     30 C30         0.4555    0.7445   -1.3388 C.3       1 <0>         0.1065
     31 N1         -0.4979   -2.7598    1.9615 N.am      1 <0>        -0.4315
     32 N2         -2.0958    6.4072    0.4670 N.pl3     1 <0>        -0.8671
     33 N3         -3.7703    5.7519   -1.1209 N.pl3     1 <0>        -0.8581
     34 N4          0.4455    0.1980   -0.0008 N.am      1 <0>        -0.5687
     35 N5         -2.9650   -2.6361    0.1813 N.am      1 <0>        -0.5746
     36 N6         -2.1460    4.1226   -0.3710 N.pl3     1 <0>        -0.7533
     37 O1         -0.5362   -1.8555   -0.4928 O.2       1 <0>        -0.5843
     38 O2         -2.2659   -3.9924    2.8322 O.2       1 <0>        -0.6812
     39 O3         -4.3065   -0.9527   -0.6974 O.2       1 <0>        -0.5788
     40 O4         -7.7760   -6.3814    1.2017 O.3       1 <0>        -0.4938
     41 O5          0.9879   -6.5072   -0.1510 O.3       1 <0>        -0.6030
     42 O6          2.5087    1.9525   -0.9290 O.3       1 <0>        -0.5860
     43 O7         -3.0778   -1.9902   -3.1305 O.3       1 <0>        -0.6021
     44 H1         -5.1729   -5.8474   -2.4702 H         1 <0>         0.1412
     45 H2         -6.6178   -2.3242   -0.4555 H         1 <0>         0.1451
     46 H3         -6.3363   -7.2658   -0.8208 H         1 <0>         0.1336
     47 H4         -7.7807   -3.7459    1.1926 H         1 <0>         0.1567
     48 H5          3.5627   -2.8549    0.7003 H         1 <0>         0.0649
     49 H6          2.0259   -2.5829   -0.0837 H         1 <0>         0.0476
     50 H7          2.8567   -4.7427   -0.7790 H         1 <0>         0.0641
     51 H8          3.1032   -5.2618    0.8729 H         1 <0>         0.0484
     52 H9          2.1569   -0.7868    1.7257 H         1 <0>         0.0596
     53 H10         1.5124   -1.2395    3.3116 H         1 <0>         0.0757
     54 H11         1.0921   -5.7802    2.3299 H         1 <0>         0.0782
     55 H12        -0.5175   -5.5090    1.7393 H         1 <0>         0.0812
     56 H13        -0.5378   -0.6778    2.3126 H         1 <0>         0.0731
     57 H14         2.6304   -3.2407    2.8169 H         1 <0>         0.0511
     58 H15         0.4523   -3.8218    3.4319 H         1 <0>         0.0753
     59 H16         0.3841   -4.5700   -0.3844 H         1 <0>         0.0427
     60 H17        -3.2863    0.1550    4.8292 H         1 <0>         0.0450
     61 H18        -4.1066    0.5680    3.3260 H         1 <0>         0.0406
     62 H19        -2.4667   -0.1061    3.2804 H         1 <0>         0.0274
     63 H20        -2.1236   -2.5806    4.1412 H         1 <0>         0.0476
     64 H21        -3.0691   -2.1929    5.5894 H         1 <0>         0.0170
     65 H22        -3.5594   -3.5370    4.5502 H         1 <0>         0.0477
     66 H23        -5.6922   -2.2106   -2.7177 H         1 <0>         0.0814
     67 H24        -5.1252   -3.6512   -3.5363 H         1 <0>         0.0685
     68 H25        -2.3478    0.9988   -1.6296 H         1 <0>         0.1016
     69 H26        -1.9571    1.4582    0.0248 H         1 <0>         0.0660
     70 H27         0.0021    2.7844   -0.7898 H         1 <0>         0.0512
     71 H28        -0.4008    2.3932   -2.4497 H         1 <0>         0.0454
     72 H29        -4.5642   -3.1100    2.3009 H         1 <0>         0.0575
     73 H30        -4.8775   -1.4748    1.7520 H         1 <0>         0.0743
     74 H31        -3.7481    2.9073   -0.8955 H         1 <0>         0.0662
     75 H32        -2.7006    3.3948   -2.2356 H         1 <0>         0.0622
     76 H33         1.9749    1.3199   -2.8074 H         1 <0>         0.0321
     77 H34         2.4858    0.0519   -1.6791 H         1 <0>         0.0204
     78 H35        -2.3644   -1.1272    1.4485 H         1 <0>         0.0749
     79 H36        -3.0804   -3.7010   -2.0039 H         1 <0>         0.0719
     80 H37        -5.0090   -1.5561    4.1946 H         1 <0>         0.0609
     81 H38         0.0149    0.0012   -2.0158 H         1 <0>         0.1063
     82 H39        -1.2903    6.2156    1.0567 H         1 <0>         0.4792
     83 H40        -2.4745    7.3512    0.4899 H         1 <0>         0.4819
     84 H41        -4.2125    5.0601   -1.7212 H         1 <0>         0.4802
     85 H42        -4.1632    6.6901   -1.1140 H         1 <0>         0.4826
     86 H43         0.8216    0.7626    0.7549 H         1 <0>         0.3101
     87 H44        -2.4970   -3.5171   -0.0370 H         1 <0>         0.3087
     88 H45        -1.3309    3.9380    0.2262 H         1 <0>         0.4846
     89 H46        -7.2802   -7.2027    1.3480 H         1 <0>         0.4194
     90 H47         1.8515   -6.8926    0.0654 H         1 <0>         0.4036
     91 H48         2.2238    2.8203   -1.2580 H         1 <0>         0.4114
     92 H49        -3.6213   -2.0752   -3.9308 H         1 <0>         0.3944
@<TRIPOS>BOND
     1    1    3 ar
     2    1    5 ar
     3    2    4 ar
     4    2    5 ar
     5    3    6 ar
     6    4    6 ar
     7    5   21 1
     8    6   40 1
     9    7   15 1
    10    7   34 am
    11    7   37 2
    12    8   27 1
    13    8   31 am
    14    8   38 2
    15    9   28 1
    16    9   35 am
    17    9   39 2
    18   10   32 1
    19   10   33 1
    20   10   36 1
    21   11   12 1
    22   11   16 1
    23   12   18 1
    24   13   15 1
    25   13   16 1
    26   14   17 1
    27   14   18 1
    28   15   31 1
    29   16   17 1
    30   17   31 1
    31   18   41 1
    32   19   29 1
    33   20   29 1
    34   21   28 1
    35   22   23 1
    36   22   25 1
    37   23   30 1
    38   24   27 1
    39   24   29 1
    40   25   36 1
    41   26   30 1
    42   26   42 1
    43   27   35 1
    44   28   43 1
    45   30   34 1
    46    1   44 1
    47    2   45 1
    48    3   46 1
    49    4   47 1
    50   11   48 1
    51   11   49 1
    52   12   50 1
    53   12   51 1
    54   13   52 1
    55   13   53 1
    56   14   54 1
    57   14   55 1
    58   15   56 1
    59   16   57 1
    60   17   58 1
    61   18   59 1
    62   19   60 1
    63   19   61 1
    64   19   62 1
    65   20   63 1
    66   20   64 1
    67   20   65 1
    68   21   66 1
    69   21   67 1
    70   22   68 1
    71   22   69 1
    72   23   70 1
    73   23   71 1
    74   24   72 1
    75   24   73 1
    76   25   74 1
    77   25   75 1
    78   26   76 1
    79   26   77 1
    80   27   78 1
    81   28   79 1
    82   29   80 1
    83   30   81 1
    84   32   82 1
    85   32   83 1
    86   33   84 1
    87   33   85 1
    88   34   86 1
    89   35   87 1
    90   36   88 1
    91   40   89 1
    92   41   90 1
    93   42   91 1
    94   43   92 1
@<TRIPOS>MOLECULE
1a2c_ligand_238
   92    94     0     0     0
SMALL
USER_CHARGES

mmff94s_NoEstat = 122.88
@<TRIPOS>ATOM
      1 C1         -4.0924   -6.1062   -2.0965 C.ar      1 <0>        -0.0708
      2 C2         -5.0027   -5.0910   -0.1021 C.ar      1 <0>        -0.0872
      3 C3         -3.8731   -7.2908   -1.3934 C.ar      1 <0>        -0.2241
      4 C4         -4.7835   -6.2756    0.6010 C.ar      1 <0>        -0.1600
      5 C5         -4.6543   -5.0223   -1.4414 C.ar      1 <0>        -0.1356
      6 C6         -4.2186   -7.3755   -0.0446 C.ar      1 <0>         0.1290
      7 C7         -0.0512   -1.0561    0.2993 C.2       1 <0>         0.6664
      8 C8         -1.8469   -3.0457    2.1630 C.2       1 <0>         0.6651
      9 C9         -3.6974   -2.0123   -0.8263 C.2       1 <0>         0.6454
     10 C10        -2.4167    4.7896   -2.8015 C.cat     1 <0>         0.6349
     11 C11         2.5186   -3.1911    0.6823 C.3       1 <0>        -0.0642
     12 C12         2.4580   -4.6414    0.2376 C.3       1 <0>        -0.0747
     13 C13         1.4874   -1.4827    2.2418 C.3       1 <0>        -0.0873
     14 C14         0.4946   -5.0934    1.7133 C.3       1 <0>        -0.1371
     15 C15         0.0412   -1.4176    1.7503 C.3       1 <0>         0.0360
     16 C16         1.8865   -2.9529    2.0632 C.3       1 <0>        -0.0720
     17 C17         0.5665   -3.7001    2.3454 C.3       1 <0>         0.1201
     18 C18         1.0248   -5.1525    0.2868 C.3       1 <0>         0.1453
     19 C19        -3.4345   -0.1597    3.7904 C.3       1 <0>        -0.0968
     20 C20        -3.1391   -2.5257    4.5483 C.3       1 <0>        -0.0986
     21 C21        -4.8923   -3.7401   -2.2028 C.3       1 <0>        -0.0191
     22 C22        -1.0374    2.7415   -0.6235 C.3       1 <0>        -0.1009
     23 C23         0.2513    2.2726   -1.3090 C.3       1 <0>        -0.0942
     24 C24        -4.1436   -2.0954    2.2850 C.3       1 <0>        -0.0988
     25 C25        -1.1758    4.2607   -0.6924 C.3       1 <0>         0.1966
     26 C26         1.7383    0.3016   -2.0469 C.3       1 <0>         0.1128
     27 C27        -2.8325   -2.1090    1.5076 C.3       1 <0>         0.0786
     28 C28        -3.6869   -2.7967   -2.1325 C.3       1 <0>         0.0744
     29 C29        -4.0154   -1.5731    3.7302 C.3       1 <0>        -0.0678
     30 C30         0.4555    0.7445   -1.3388 C.3       1 <0>         0.1065
     31 N1         -0.4979   -2.7598    1.9615 N.am      1 <0>        -0.4315
     32 N2         -2.4125    5.2109   -4.1272 N.pl3     1 <0>        -0.8671
     33 N3         -3.6262    4.4629   -2.1979 N.pl3     1 <0>        -0.8581
     34 N4          0.4455    0.1980   -0.0008 N.am      1 <0>        -0.5687
     35 N5         -2.9650   -2.6361    0.1813 N.am      1 <0>        -0.5746
     36 N6         -1.2206    4.6907   -2.0698 N.pl3     1 <0>        -0.7533
     37 O1         -0.5362   -1.8555   -0.4928 O.2       1 <0>        -0.5843
     38 O2         -2.2659   -3.9924    2.8322 O.2       1 <0>        -0.6812
     39 O3         -4.3065   -0.9527   -0.6974 O.2       1 <0>        -0.5788
     40 O4         -4.0062   -8.5320    0.6410 O.3       1 <0>        -0.4938
     41 O5          0.9879   -6.5072   -0.1510 O.3       1 <0>        -0.6030
     42 O6          2.8703    0.8436   -1.3793 O.3       1 <0>        -0.5860
     43 O7         -3.7616   -1.8713   -3.2074 O.3       1 <0>        -0.6021
     44 H1         -3.8198   -6.0497   -3.1468 H         1 <0>         0.1412
     45 H2         -5.4436   -4.2391    0.4091 H         1 <0>         0.1451
     46 H3         -3.4330   -8.1441   -1.9019 H         1 <0>         0.1336
     47 H4         -5.0556   -6.3357    1.6515 H         1 <0>         0.1567
     48 H5          3.5627   -2.8549    0.7003 H         1 <0>         0.0649
     49 H6          2.0259   -2.5829   -0.0837 H         1 <0>         0.0476
     50 H7          2.8567   -4.7427   -0.7790 H         1 <0>         0.0641
     51 H8          3.1032   -5.2618    0.8729 H         1 <0>         0.0484
     52 H9          2.1569   -0.7868    1.7257 H         1 <0>         0.0596
     53 H10         1.5124   -1.2395    3.3116 H         1 <0>         0.0757
     54 H11         1.0921   -5.7802    2.3299 H         1 <0>         0.0782
     55 H12        -0.5175   -5.5090    1.7393 H         1 <0>         0.0812
     56 H13        -0.5378   -0.6778    2.3126 H         1 <0>         0.0731
     57 H14         2.6304   -3.2407    2.8169 H         1 <0>         0.0511
     58 H15         0.4523   -3.8218    3.4319 H         1 <0>         0.0753
     59 H16         0.3841   -4.5700   -0.3844 H         1 <0>         0.0427
     60 H17        -3.2863    0.1550    4.8292 H         1 <0>         0.0450
     61 H18        -4.1066    0.5680    3.3260 H         1 <0>         0.0406
     62 H19        -2.4667   -0.1061    3.2804 H         1 <0>         0.0274
     63 H20        -2.1236   -2.5806    4.1412 H         1 <0>         0.0476
     64 H21        -3.0691   -2.1929    5.5894 H         1 <0>         0.0170
     65 H22        -3.5594   -3.5370    4.5502 H         1 <0>         0.0477
     66 H23        -5.7841   -3.2421   -1.7993 H         1 <0>         0.0814
     67 H24        -5.1367   -3.9958   -3.2415 H         1 <0>         0.0685
     68 H25        -1.9092    2.2808   -1.1025 H         1 <0>         0.1016
     69 H26        -1.0467    2.4234    0.4259 H         1 <0>         0.0660
     70 H27         1.1110    2.7323   -0.8028 H         1 <0>         0.0512
     71 H28         0.2685    2.6560   -2.3373 H         1 <0>         0.0454
     72 H29        -4.5642   -3.1100    2.3009 H         1 <0>         0.0575
     73 H30        -4.8775   -1.4748    1.7520 H         1 <0>         0.0743
     74 H31        -0.3281    4.7425   -0.1937 H         1 <0>         0.0662
     75 H32        -2.0906    4.5862   -0.1866 H         1 <0>         0.0622
     76 H33         1.7614    0.6251   -3.0928 H         1 <0>         0.0321
     77 H34         1.8289   -0.7905   -2.0281 H         1 <0>         0.0204
     78 H35        -2.3644   -1.1272    1.4485 H         1 <0>         0.0749
     79 H36        -2.7406   -3.3442   -2.2154 H         1 <0>         0.0719
     80 H37        -5.0090   -1.5561    4.1946 H         1 <0>         0.0609
     81 H38        -0.3978    0.3245   -1.8868 H         1 <0>         0.1063
     82 H39        -1.5532    5.4619   -4.6087 H         1 <0>         0.4792
     83 H40        -3.2791    5.2826   -4.6554 H         1 <0>         0.4819
     84 H41        -3.6654    4.1514   -1.2304 H         1 <0>         0.4802
     85 H42        -4.5035    4.5259   -2.7087 H         1 <0>         0.4826
     86 H43         0.8216    0.7626    0.7549 H         1 <0>         0.3101
     87 H44        -2.4970   -3.5171   -0.0370 H         1 <0>         0.3087
     88 H45        -0.3567    4.9441   -2.5643 H         1 <0>         0.4846
     89 H46        -3.2195   -8.9860    0.2991 H         1 <0>         0.4194
     90 H47         1.8515   -6.8926    0.0654 H         1 <0>         0.4036
     91 H48         2.9636    1.7601   -1.6856 H         1 <0>         0.4114
     92 H49        -4.4012   -2.2307   -3.8437 H         1 <0>         0.3944
@<TRIPOS>BOND
     1    1    3 ar
     2    1    5 ar
     3    2    4 ar
     4    2    5 ar
     5    3    6 ar
     6    4    6 ar
     7    5   21 1
     8    6   40 1
     9    7   15 1
    10    7   34 am
    11    7   37 2
    12    8   27 1
    13    8   31 am
    14    8   38 2
    15    9   28 1
    16    9   35 am
    17    9   39 2
    18   10   32 1
    19   10   33 1
    20   10   36 1
    21   11   12 1
    22   11   16 1
    23   12   18 1
    24   13   15 1
    25   13   16 1
    26   14   17 1
    27   14   18 1
    28   15   31 1
    29   16   17 1
    30   17   31 1
    31   18   41 1
    32   19   29 1
    33   20   29 1
    34   21   28 1
    35   22   23 1
    36   22   25 1
    37   23   30 1
    38   24   27 1
    39   24   29 1
    40   25   36 1
    41   26   30 1
    42   26   42 1
    43   27   35 1
    44   28   43 1
    45   30   34 1
    46    1   44 1
    47    2   45 1
    48    3   46 1
    49    4   47 1
    50   11   48 1
    51   11   49 1
    52   12   50 1
    53   12   51 1
    54   13   52 1
    55   13   53 1
    56   14   54 1
    57   14   55 1
    58   15   56 1
    59   16   57 1
    60   17   58 1
    61   18   59 1
    62   19   60 1
    63   19   61 1
    64   19   62 1
    65   20   63 1
    66   20   64 1
    67   20   65 1
    68   21   66 1
    69   21   67 1
    70   22   68 1
    71   22   69 1
    72   23   70 1
    73   23   71 1
    74   24   72 1
    75   24   73 1
    76   25   74 1
    77   25   75 1
    78   26   76 1
    79   26   77 1
    80   27   78 1
    81   28   79 1
    82   29   80 1
    83   30   81 1
    84   32   82 1
    85   32   83 1
    86   33   84 1
    87   33   85 1
    88   34   86 1
    89   35   87 1
    90   36   88 1
    91   40   89 1
    92   41   90 1
    93   42   91 1
    94   43   92 1
@<TRIPOS>MOLECULE
1a2c_ligand_239
   92    94     0     0     0
SMALL
USER_CHARGES

mmff94s_NoEstat = 122.95
@<TRIPOS>ATOM
      1 C1         -4.0924   -6.1062   -2.0965 C.ar      1 <0>        -0.0708
      2 C2         -5.0027   -5.0910   -0.1021 C.ar      1 <0>        -0.0872
      3 C3         -3.8731   -7.2908   -1.3934 C.ar      1 <0>        -0.2241
      4 C4         -4.7835   -6.2756    0.6010 C.ar      1 <0>        -0.1600
      5 C5         -4.6543   -5.0223   -1.4414 C.ar      1 <0>        -0.1356
      6 C6         -4.2186   -7.3755   -0.0446 C.ar      1 <0>         0.1290
      7 C7         -0.0512   -1.0561    0.2993 C.2       1 <0>         0.6664
      8 C8         -1.8469   -3.0457    2.1630 C.2       1 <0>         0.6651
      9 C9         -3.6974   -2.0123   -0.8263 C.2       1 <0>         0.6454
     10 C10        -0.0505    5.2362    1.3200 C.cat     1 <0>         0.6349
     11 C11         2.5186   -3.1911    0.6823 C.3       1 <0>        -0.0642
     12 C12         2.4580   -4.6414    0.2376 C.3       1 <0>        -0.0747
     13 C13         1.4874   -1.4827    2.2418 C.3       1 <0>        -0.0873
     14 C14         0.4946   -5.0934    1.7133 C.3       1 <0>        -0.1371
     15 C15         0.0412   -1.4176    1.7503 C.3       1 <0>         0.0360
     16 C16         1.8865   -2.9529    2.0632 C.3       1 <0>        -0.0720
     17 C17         0.5665   -3.7001    2.3454 C.3       1 <0>         0.1201
     18 C18         1.0248   -5.1525    0.2868 C.3       1 <0>         0.1453
     19 C19        -3.4345   -0.1597    3.7904 C.3       1 <0>        -0.0968
     20 C20        -3.1391   -2.5257    4.5483 C.3       1 <0>        -0.0986
     21 C21        -4.8923   -3.7401   -2.2028 C.3       1 <0>        -0.0191
     22 C22        -1.0374    2.7415   -0.6235 C.3       1 <0>        -0.1009
     23 C23         0.2513    2.2726   -1.3090 C.3       1 <0>        -0.0942
     24 C24        -4.1436   -2.0954    2.2850 C.3       1 <0>        -0.0988
     25 C25        -1.1758    4.2607   -0.6924 C.3       1 <0>         0.1966
     26 C26         1.7383    0.3016   -2.0469 C.3       1 <0>         0.1128
     27 C27        -2.8325   -2.1090    1.5076 C.3       1 <0>         0.0786
     28 C28        -3.6869   -2.7967   -2.1325 C.3       1 <0>         0.0744
     29 C29        -4.0154   -1.5731    3.7302 C.3       1 <0>        -0.0678
     30 C30         0.4555    0.7445   -1.3388 C.3       1 <0>         0.1065
     31 N1         -0.4979   -2.7598    1.9615 N.am      1 <0>        -0.4315
     32 N2          1.0581    5.8390    1.9054 N.pl3     1 <0>        -0.8671
     33 N3         -1.1718    4.9761    2.1004 N.pl3     1 <0>        -0.8581
     34 N4          0.4455    0.1980   -0.0008 N.am      1 <0>        -0.5687
     35 N5         -2.9650   -2.6361    0.1813 N.am      1 <0>        -0.5746
     36 N6         -0.0506    4.8893   -0.0421 N.pl3     1 <0>        -0.7533
     37 O1         -0.5362   -1.8555   -0.4928 O.2       1 <0>        -0.5843
     38 O2         -2.2659   -3.9924    2.8322 O.2       1 <0>        -0.6812
     39 O3         -4.3065   -0.9527   -0.6974 O.2       1 <0>        -0.5788
     40 O4         -4.0062   -8.5320    0.6410 O.3       1 <0>        -0.4938
     41 O5          0.9879   -6.5072   -0.1510 O.3       1 <0>        -0.6030
     42 O6          2.8703    0.8436   -1.3793 O.3       1 <0>        -0.5860
     43 O7         -3.7616   -1.8713   -3.2074 O.3       1 <0>        -0.6021
     44 H1         -3.8198   -6.0497   -3.1468 H         1 <0>         0.1412
     45 H2         -5.4436   -4.2391    0.4091 H         1 <0>         0.1451
     46 H3         -3.4330   -8.1441   -1.9019 H         1 <0>         0.1336
     47 H4         -5.0556   -6.3357    1.6515 H         1 <0>         0.1567
     48 H5          3.5627   -2.8549    0.7003 H         1 <0>         0.0649
     49 H6          2.0259   -2.5829   -0.0837 H         1 <0>         0.0476
     50 H7          2.8567   -4.7427   -0.7790 H         1 <0>         0.0641
     51 H8          3.1032   -5.2618    0.8729 H         1 <0>         0.0484
     52 H9          2.1569   -0.7868    1.7257 H         1 <0>         0.0596
     53 H10         1.5124   -1.2395    3.3116 H         1 <0>         0.0757
     54 H11         1.0921   -5.7802    2.3299 H         1 <0>         0.0782
     55 H12        -0.5175   -5.5090    1.7393 H         1 <0>         0.0812
     56 H13        -0.5378   -0.6778    2.3126 H         1 <0>         0.0731
     57 H14         2.6304   -3.2407    2.8169 H         1 <0>         0.0511
     58 H15         0.4523   -3.8218    3.4319 H         1 <0>         0.0753
     59 H16         0.3841   -4.5700   -0.3844 H         1 <0>         0.0427
     60 H17        -3.2863    0.1550    4.8292 H         1 <0>         0.0450
     61 H18        -4.1066    0.5680    3.3260 H         1 <0>         0.0406
     62 H19        -2.4667   -0.1061    3.2804 H         1 <0>         0.0274
     63 H20        -2.1236   -2.5806    4.1412 H         1 <0>         0.0476
     64 H21        -3.0691   -2.1929    5.5894 H         1 <0>         0.0170
     65 H22        -3.5594   -3.5370    4.5502 H         1 <0>         0.0477
     66 H23        -5.7841   -3.2421   -1.7993 H         1 <0>         0.0814
     67 H24        -5.1367   -3.9958   -3.2415 H         1 <0>         0.0685
     68 H25        -1.9092    2.2808   -1.1025 H         1 <0>         0.1016
     69 H26        -1.0467    2.4234    0.4259 H         1 <0>         0.0660
     70 H27         1.1110    2.7323   -0.8028 H         1 <0>         0.0512
     71 H28         0.2685    2.6560   -2.3373 H         1 <0>         0.0454
     72 H29        -4.5642   -3.1100    2.3009 H         1 <0>         0.0575
     73 H30        -4.8775   -1.4748    1.7520 H         1 <0>         0.0743
     74 H31        -2.0997    4.5809   -0.1994 H         1 <0>         0.0662
     75 H32        -1.2190    4.5954   -1.7340 H         1 <0>         0.0622
     76 H33         1.7614    0.6251   -3.0928 H         1 <0>         0.0321
     77 H34         1.8289   -0.7905   -2.0281 H         1 <0>         0.0204
     78 H35        -2.3644   -1.1272    1.4485 H         1 <0>         0.0749
     79 H36        -2.7406   -3.3442   -2.2154 H         1 <0>         0.0719
     80 H37        -5.0090   -1.5561    4.1946 H         1 <0>         0.0609
     81 H38        -0.3978    0.3245   -1.8868 H         1 <0>         0.1063
     82 H39         1.9000    6.0462    1.3749 H         1 <0>         0.4792
     83 H40         1.0569    6.0890    2.8916 H         1 <0>         0.4819
     84 H41        -1.9992    4.5366    1.7045 H         1 <0>         0.4802
     85 H42        -1.1942    5.2197    3.0877 H         1 <0>         0.4826
     86 H43         0.8216    0.7626    0.7549 H         1 <0>         0.3101
     87 H44        -2.4970   -3.5171   -0.0370 H         1 <0>         0.3087
     88 H45         0.8032    5.1039   -0.5714 H         1 <0>         0.4846
     89 H46        -3.2195   -8.9860    0.2991 H         1 <0>         0.4194
     90 H47         1.8515   -6.8926    0.0654 H         1 <0>         0.4036
     91 H48         2.9636    1.7601   -1.6856 H         1 <0>         0.4114
     92 H49        -4.4012   -2.2307   -3.8437 H         1 <0>         0.3944
@<TRIPOS>BOND
     1    1    3 ar
     2    1    5 ar
     3    2    4 ar
     4    2    5 ar
     5    3    6 ar
     6    4    6 ar
     7    5   21 1
     8    6   40 1
     9    7   15 1
    10    7   34 am
    11    7   37 2
    12    8   27 1
    13    8   31 am
    14    8   38 2
    15    9   28 1
    16    9   35 am
    17    9   39 2
    18   10   32 1
    19   10   33 1
    20   10   36 1
    21   11   12 1
    22   11   16 1
    23   12   18 1
    24   13   15 1
    25   13   16 1
    26   14   17 1
    27   14   18 1
    28   15   31 1
    29   16   17 1
    30   17   31 1
    31   18   41 1
    32   19   29 1
    33   20   29 1
    34   21   28 1
    35   22   23 1
    36   22   25 1
    37   23   30 1
    38   24   27 1
    39   24   29 1
    40   25   36 1
    41   26   30 1
    42   26   42 1
    43   27   35 1
    44   28   43 1
    45   30   34 1
    46    1   44 1
    47    2   45 1
    48    3   46 1
    49    4   47 1
    50   11   48 1
    51   11   49 1
    52   12   50 1
    53   12   51 1
    54   13   52 1
    55   13   53 1
    56   14   54 1
    57   14   55 1
    58   15   56 1
    59   16   57 1
    60   17   58 1
    61   18   59 1
    62   19   60 1
    63   19   61 1
    64   19   62 1
    65   20   63 1
    66   20   64 1
    67   20   65 1
    68   21   66 1
    69   21   67 1
    70   22   68 1
    71   22   69 1
    72   23   70 1
    73   23   71 1
    74   24   72 1
    75   24   73 1
    76   25   74 1
    77   25   75 1
    78   26   76 1
    79   26   77 1
    80   27   78 1
    81   28   79 1
    82   29   80 1
    83   30   81 1
    84   32   82 1
    85   32   83 1
    86   33   84 1
    87   33   85 1
    88   34   86 1
    89   35   87 1
    90   36   88 1
    91   40   89 1
    92   41   90 1
    93   42   91 1
    94   43   92 1
@<TRIPOS>MOLECULE
1a2c_ligand_240
   92    94     0     0     0
SMALL
USER_CHARGES

mmff94s_NoEstat = 122.99
@<TRIPOS>ATOM
      1 C1         -4.6714   -3.3987   -5.2609 C.ar      1 <0>        -0.0708
      2 C2         -5.9688   -4.6770   -3.6736 C.ar      1 <0>        -0.0872
      3 C3         -4.9033   -4.3712   -6.2336 C.ar      1 <0>        -0.2241
      4 C4         -6.2008   -5.6495   -4.6463 C.ar      1 <0>        -0.1600
      5 C5         -5.2073   -3.5646   -3.9940 C.ar      1 <0>        -0.1356
      6 C6         -5.6680   -5.4966   -5.9263 C.ar      1 <0>         0.1290
      7 C7         -0.0512   -1.0561    0.2993 C.2       1 <0>         0.6664
      8 C8         -1.8469   -3.0457    2.1630 C.2       1 <0>         0.6651
      9 C9         -3.6974   -2.0123   -0.8263 C.2       1 <0>         0.6454
     10 C10        -3.3294    2.0808   -3.5565 C.cat     1 <0>         0.6349
     11 C11         2.5186   -3.1911    0.6823 C.3       1 <0>        -0.0642
     12 C12         2.4580   -4.6414    0.2376 C.3       1 <0>        -0.0747
     13 C13         1.4874   -1.4827    2.2418 C.3       1 <0>        -0.0873
     14 C14         0.4946   -5.0934    1.7133 C.3       1 <0>        -0.1371
     15 C15         0.0412   -1.4176    1.7503 C.3       1 <0>         0.0360
     16 C16         1.8865   -2.9529    2.0632 C.3       1 <0>        -0.0720
     17 C17         0.5665   -3.7001    2.3454 C.3       1 <0>         0.1201
     18 C18         1.0248   -5.1525    0.2868 C.3       1 <0>         0.1453
     19 C19        -3.4345   -0.1597    3.7904 C.3       1 <0>        -0.0968
     20 C20        -3.1391   -2.5257    4.5483 C.3       1 <0>        -0.0986
     21 C21        -4.9567   -2.5115   -2.9411 C.3       1 <0>        -0.0191
     22 C22        -1.0374    2.7415   -0.6235 C.3       1 <0>        -0.1009
     23 C23         0.2513    2.2726   -1.3090 C.3       1 <0>        -0.0942
     24 C24        -4.1436   -2.0954    2.2850 C.3       1 <0>        -0.0988
     25 C25        -2.2684    2.1304   -1.2894 C.3       1 <0>         0.1966
     26 C26         1.7383    0.3016   -2.0469 C.3       1 <0>         0.1128
     27 C27        -2.8325   -2.1090    1.5076 C.3       1 <0>         0.0786
     28 C28        -3.6869   -2.7967   -2.1325 C.3       1 <0>         0.0744
     29 C29        -4.0154   -1.5731    3.7302 C.3       1 <0>        -0.0678
     30 C30         0.4555    0.7445   -1.3388 C.3       1 <0>         0.1065
     31 N1         -0.4979   -2.7598    1.9615 N.am      1 <0>        -0.4315
     32 N2         -3.3390    2.4766   -4.8899 N.pl3     1 <0>        -0.8671
     33 N3         -4.3382    1.2447   -3.0902 N.pl3     1 <0>        -0.8581
     34 N4          0.4455    0.1980   -0.0008 N.am      1 <0>        -0.5687
     35 N5         -2.9650   -2.6361    0.1813 N.am      1 <0>        -0.5746
     36 N6         -2.3186    2.5130   -2.6805 N.pl3     1 <0>        -0.7533
     37 O1         -0.5362   -1.8555   -0.4928 O.2       1 <0>        -0.5843
     38 O2         -2.2659   -3.9924    2.8322 O.2       1 <0>        -0.6812
     39 O3         -4.3065   -0.9527   -0.6974 O.2       1 <0>        -0.5788
     40 O4         -5.8957   -6.4447   -6.8760 O.3       1 <0>        -0.4938
     41 O5          0.9879   -6.5072   -0.1510 O.3       1 <0>        -0.6030
     42 O6          2.8703    0.8436   -1.3793 O.3       1 <0>        -0.5860
     43 O7         -2.5564   -2.3866   -2.8882 O.3       1 <0>        -0.6021
     44 H1         -4.0743   -2.5256   -5.5096 H         1 <0>         0.1412
     45 H2         -6.3881   -4.8044   -2.6789 H         1 <0>         0.1451
     46 H3         -4.4858   -4.2463   -7.2288 H         1 <0>         0.1336
     47 H4         -6.7982   -6.5237   -4.4010 H         1 <0>         0.1567
     48 H5          3.5627   -2.8549    0.7003 H         1 <0>         0.0649
     49 H6          2.0259   -2.5829   -0.0837 H         1 <0>         0.0476
     50 H7          2.8567   -4.7427   -0.7790 H         1 <0>         0.0641
     51 H8          3.1032   -5.2618    0.8729 H         1 <0>         0.0484
     52 H9          2.1569   -0.7868    1.7257 H         1 <0>         0.0596
     53 H10         1.5124   -1.2395    3.3116 H         1 <0>         0.0757
     54 H11         1.0921   -5.7802    2.3299 H         1 <0>         0.0782
     55 H12        -0.5175   -5.5090    1.7393 H         1 <0>         0.0812
     56 H13        -0.5378   -0.6778    2.3126 H         1 <0>         0.0731
     57 H14         2.6304   -3.2407    2.8169 H         1 <0>         0.0511
     58 H15         0.4523   -3.8218    3.4319 H         1 <0>         0.0753
     59 H16         0.3841   -4.5700   -0.3844 H         1 <0>         0.0427
     60 H17        -3.2863    0.1550    4.8292 H         1 <0>         0.0450
     61 H18        -4.1066    0.5680    3.3260 H         1 <0>         0.0406
     62 H19        -2.4667   -0.1061    3.2804 H         1 <0>         0.0274
     63 H20        -2.1236   -2.5806    4.1412 H         1 <0>         0.0476
     64 H21        -3.0691   -2.1929    5.5894 H         1 <0>         0.0170
     65 H22        -3.5594   -3.5370    4.5502 H         1 <0>         0.0477
     66 H23        -5.8255   -2.4582   -2.2714 H         1 <0>         0.0814
     67 H24        -4.9010   -1.5342   -3.4370 H         1 <0>         0.0685
     68 H25        -1.0263    2.4588    0.4356 H         1 <0>         0.1016
     69 H26        -1.1105    3.8350   -0.6596 H         1 <0>         0.0660
     70 H27         1.1110    2.7323   -0.8028 H         1 <0>         0.0512
     71 H28         0.2685    2.6560   -2.3373 H         1 <0>         0.0454
     72 H29        -4.5642   -3.1100    2.3009 H         1 <0>         0.0575
     73 H30        -4.8775   -1.4748    1.7520 H         1 <0>         0.0743
     74 H31        -3.1804    2.4738   -0.7898 H         1 <0>         0.0662
     75 H32        -2.2399    1.0381   -1.2201 H         1 <0>         0.0622
     76 H33         1.7614    0.6251   -3.0928 H         1 <0>         0.0321
     77 H34         1.8289   -0.7905   -2.0281 H         1 <0>         0.0204
     78 H35        -2.3644   -1.1272    1.4485 H         1 <0>         0.0749
     79 H36        -3.5820   -3.8651   -1.9094 H         1 <0>         0.0719
     80 H37        -5.0090   -1.5561    4.1946 H         1 <0>         0.0609
     81 H38        -0.3978    0.3245   -1.8868 H         1 <0>         0.1063
     82 H39        -2.6237    3.0881   -5.2742 H         1 <0>         0.4792
     83 H40        -4.0716    2.1635   -5.5226 H         1 <0>         0.4819
     84 H41        -4.3615    0.9362   -2.1213 H         1 <0>         0.4802
     85 H42        -5.0788    0.9188   -3.7066 H         1 <0>         0.4826
     86 H43         0.8216    0.7626    0.7549 H         1 <0>         0.3101
     87 H44        -2.4970   -3.5171   -0.0370 H         1 <0>         0.3087
     88 H45        -1.5986    3.1289   -3.0773 H         1 <0>         0.4846
     89 H46        -5.1365   -6.5076   -7.4772 H         1 <0>         0.4194
     90 H47         1.8515   -6.8926    0.0654 H         1 <0>         0.4036
     91 H48         2.9636    1.7601   -1.6856 H         1 <0>         0.4114
     92 H49        -2.8568   -2.2745   -3.8049 H         1 <0>         0.3944
@<TRIPOS>BOND
     1    1    3 ar
     2    1    5 ar
     3    2    4 ar
     4    2    5 ar
     5    3    6 ar
     6    4    6 ar
     7    5   21 1
     8    6   40 1
     9    7   15 1
    10    7   34 am
    11    7   37 2
    12    8   27 1
    13    8   31 am
    14    8   38 2
    15    9   28 1
    16    9   35 am
    17    9   39 2
    18   10   32 1
    19   10   33 1
    20   10   36 1
    21   11   12 1
    22   11   16 1
    23   12   18 1
    24   13   15 1
    25   13   16 1
    26   14   17 1
    27   14   18 1
    28   15   31 1
    29   16   17 1
    30   17   31 1
    31   18   41 1
    32   19   29 1
    33   20   29 1
    34   21   28 1
    35   22   23 1
    36   22   25 1
    37   23   30 1
    38   24   27 1
    39   24   29 1
    40   25   36 1
    41   26   30 1
    42   26   42 1
    43   27   35 1
    44   28   43 1
    45   30   34 1
    46    1   44 1
    47    2   45 1
    48    3   46 1
    49    4   47 1
    50   11   48 1
    51   11   49 1
    52   12   50 1
    53   12   51 1
    54   13   52 1
    55   13   53 1
    56   14   54 1
    57   14   55 1
    58   15   56 1
    59   16   57 1
    60   17   58 1
    61   18   59 1
    62   19   60 1
    63   19   61 1
    64   19   62 1
    65   20   63 1
    66   20   64 1
    67   20   65 1
    68   21   66 1
    69   21   67 1
    70   22   68 1
    71   22   69 1
    72   23   70 1
    73   23   71 1
    74   24   72 1
    75   24   73 1
    76   25   74 1
    77   25   75 1
    78   26   76 1
    79   26   77 1
    80   27   78 1
    81   28   79 1
    82   29   80 1
    83   30   81 1
    84   32   82 1
    85   32   83 1
    86   33   84 1
    87   33   85 1
    88   34   86 1
    89   35   87 1
    90   36   88 1
    91   40   89 1
    92   41   90 1
    93   42   91 1
    94   43   92 1
@<TRIPOS>MOLECULE
1a2c_ligand_241
   92    94     0     0     0
SMALL
USER_CHARGES

mmff94s_NoEstat = 123.00
@<TRIPOS>ATOM
      1 C1         -6.3570   -4.5806   -3.0309 C.ar      1 <0>        -0.0708
      2 C2         -6.9553   -2.8328   -1.4739 C.ar      1 <0>        -0.0872
      3 C3         -7.4402   -5.3421   -2.5924 C.ar      1 <0>        -0.2241
      4 C4         -8.0386   -3.5943   -1.0354 C.ar      1 <0>        -0.1600
      5 C5         -6.1291   -3.3362   -2.4659 C.ar      1 <0>        -0.1356
      6 C6         -8.2811   -4.8489   -1.5946 C.ar      1 <0>         0.1290
      7 C7         -0.0512   -1.0561    0.2993 C.2       1 <0>         0.6664
      8 C8         -1.8469   -3.0457    2.1630 C.2       1 <0>         0.6651
      9 C9         -3.6974   -2.0123   -0.8263 C.2       1 <0>         0.6454
     10 C10        -4.9611    2.5287   -1.1447 C.cat     1 <0>         0.6349
     11 C11         2.5186   -3.1911    0.6823 C.3       1 <0>        -0.0642
     12 C12         2.4580   -4.6414    0.2376 C.3       1 <0>        -0.0747
     13 C13         1.4874   -1.4827    2.2418 C.3       1 <0>        -0.0873
     14 C14         0.4946   -5.0934    1.7133 C.3       1 <0>        -0.1371
     15 C15         0.0412   -1.4176    1.7503 C.3       1 <0>         0.0360
     16 C16         1.8865   -2.9529    2.0632 C.3       1 <0>        -0.0720
     17 C17         0.5665   -3.7001    2.3454 C.3       1 <0>         0.1201
     18 C18         1.0248   -5.1525    0.2868 C.3       1 <0>         0.1453
     19 C19        -3.4345   -0.1597    3.7904 C.3       1 <0>        -0.0968
     20 C20        -3.1391   -2.5257    4.5483 C.3       1 <0>        -0.0986
     21 C21        -4.9567   -2.5115   -2.9411 C.3       1 <0>        -0.0191
     22 C22        -1.2019    2.6554   -0.7648 C.3       1 <0>        -0.1009
     23 C23        -0.8794    1.4488   -1.6540 C.3       1 <0>        -0.0942
     24 C24        -4.1436   -2.0954    2.2850 C.3       1 <0>        -0.0988
     25 C25        -2.5638    3.2498   -1.1169 C.3       1 <0>         0.1966
     26 C26         1.6856    1.6412   -1.5001 C.3       1 <0>         0.1128
     27 C27        -2.8325   -2.1090    1.5076 C.3       1 <0>         0.0786
     28 C28        -3.6869   -2.7967   -2.1325 C.3       1 <0>         0.0744
     29 C29        -4.0154   -1.5731    3.7302 C.3       1 <0>        -0.0678
     30 C30         0.4555    0.7445   -1.3388 C.3       1 <0>         0.1065
     31 N1         -0.4979   -2.7598    1.9615 N.am      1 <0>        -0.4315
     32 N2         -5.9246    1.5452   -0.9464 N.pl3     1 <0>        -0.8671
     33 N3         -5.3591    3.7919   -1.5689 N.pl3     1 <0>        -0.8581
     34 N4          0.4455    0.1980   -0.0008 N.am      1 <0>        -0.5687
     35 N5         -2.9650   -2.6361    0.1813 N.am      1 <0>        -0.5746
     36 N6         -3.5989    2.2625   -0.9226 N.pl3     1 <0>        -0.7533
     37 O1         -0.5362   -1.8555   -0.4928 O.2       1 <0>        -0.5843
     38 O2         -2.2659   -3.9924    2.8322 O.2       1 <0>        -0.6812
     39 O3         -4.3065   -0.9527   -0.6974 O.2       1 <0>        -0.5788
     40 O4         -9.3391   -5.5914   -1.1679 O.3       1 <0>        -0.4938
     41 O5          0.9879   -6.5072   -0.1510 O.3       1 <0>        -0.6030
     42 O6          2.8639    0.9021   -1.2063 O.3       1 <0>        -0.5860
     43 O7         -2.5564   -2.3866   -2.8882 O.3       1 <0>        -0.6021
     44 H1         -5.7074   -4.9732   -3.8085 H         1 <0>         0.1412
     45 H2         -6.7742   -1.8561   -1.0327 H         1 <0>         0.1451
     46 H3         -7.6239   -6.3185   -3.0320 H         1 <0>         0.1336
     47 H4         -8.6907   -3.2042   -0.2583 H         1 <0>         0.1567
     48 H5          3.5627   -2.8549    0.7003 H         1 <0>         0.0649
     49 H6          2.0259   -2.5829   -0.0837 H         1 <0>         0.0476
     50 H7          2.8567   -4.7427   -0.7790 H         1 <0>         0.0641
     51 H8          3.1032   -5.2618    0.8729 H         1 <0>         0.0484
     52 H9          2.1569   -0.7868    1.7257 H         1 <0>         0.0596
     53 H10         1.5124   -1.2395    3.3116 H         1 <0>         0.0757
     54 H11         1.0921   -5.7802    2.3299 H         1 <0>         0.0782
     55 H12        -0.5175   -5.5090    1.7393 H         1 <0>         0.0812
     56 H13        -0.5378   -0.6778    2.3126 H         1 <0>         0.0731
     57 H14         2.6304   -3.2407    2.8169 H         1 <0>         0.0511
     58 H15         0.4523   -3.8218    3.4319 H         1 <0>         0.0753
     59 H16         0.3841   -4.5700   -0.3844 H         1 <0>         0.0427
     60 H17        -3.2863    0.1550    4.8292 H         1 <0>         0.0450
     61 H18        -4.1066    0.5680    3.3260 H         1 <0>         0.0406
     62 H19        -2.4667   -0.1061    3.2804 H         1 <0>         0.0274
     63 H20        -2.1236   -2.5806    4.1412 H         1 <0>         0.0476
     64 H21        -3.0691   -2.1929    5.5894 H         1 <0>         0.0170
     65 H22        -3.5594   -3.5370    4.5502 H         1 <0>         0.0477
     66 H23        -5.2149   -1.4462   -2.8732 H         1 <0>         0.0814
     67 H24        -4.8022   -2.7143   -4.0083 H         1 <0>         0.0685
     68 H25        -1.2036    2.3575    0.2901 H         1 <0>         0.1016
     69 H26        -0.4298    3.4262   -0.8760 H         1 <0>         0.0660
     70 H27        -0.8663    1.7736   -2.7033 H         1 <0>         0.0512
     71 H28        -1.6959    0.7195   -1.5759 H         1 <0>         0.0454
     72 H29        -4.5642   -3.1100    2.3009 H         1 <0>         0.0575
     73 H30        -4.8775   -1.4748    1.7520 H         1 <0>         0.0743
     74 H31        -2.5755    3.5811   -2.1607 H         1 <0>         0.0662
     75 H32        -2.7773    4.1198   -0.4874 H         1 <0>         0.0622
     76 H33         1.6463    2.5133   -0.8391 H         1 <0>         0.0321
     77 H34         1.7645    2.0016   -2.5321 H         1 <0>         0.0204
     78 H35        -2.3644   -1.1272    1.4485 H         1 <0>         0.0749
     79 H36        -3.5820   -3.8651   -1.9094 H         1 <0>         0.0719
     80 H37        -5.0090   -1.5561    4.1946 H         1 <0>         0.0609
     81 H38         0.5463   -0.0881   -2.0483 H         1 <0>         0.1063
     82 H39        -5.6803    0.6076   -0.6389 H         1 <0>         0.4792
     83 H40        -6.9102    1.7391   -1.1082 H         1 <0>         0.4819
     84 H41        -4.6810    4.5340   -1.7236 H         1 <0>         0.4802
     85 H42        -6.3394    4.0071   -1.7346 H         1 <0>         0.4826
     86 H43         0.8216    0.7626    0.7549 H         1 <0>         0.3101
     87 H44        -2.4970   -3.5171   -0.0370 H         1 <0>         0.3087
     88 H45        -3.3608    1.3133   -0.6101 H         1 <0>         0.4846
     89 H46        -9.1286   -6.5373   -1.2190 H         1 <0>         0.4194
     90 H47         1.8515   -6.8926    0.0654 H         1 <0>         0.4036
     91 H48         2.9483    0.8828   -0.2393 H         1 <0>         0.4114
     92 H49        -2.8568   -2.2745   -3.8049 H         1 <0>         0.3944
@<TRIPOS>BOND
     1    1    3 ar
     2    1    5 ar
     3    2    4 ar
     4    2    5 ar
     5    3    6 ar
     6    4    6 ar
     7    5   21 1
     8    6   40 1
     9    7   15 1
    10    7   34 am
    11    7   37 2
    12    8   27 1
    13    8   31 am
    14    8   38 2
    15    9   28 1
    16    9   35 am
    17    9   39 2
    18   10   32 1
    19   10   33 1
    20   10   36 1
    21   11   12 1
    22   11   16 1
    23   12   18 1
    24   13   15 1
    25   13   16 1
    26   14   17 1
    27   14   18 1
    28   15   31 1
    29   16   17 1
    30   17   31 1
    31   18   41 1
    32   19   29 1
    33   20   29 1
    34   21   28 1
    35   22   23 1
    36   22   25 1
    37   23   30 1
    38   24   27 1
    39   24   29 1
    40   25   36 1
    41   26   30 1
    42   26   42 1
    43   27   35 1
    44   28   43 1
    45   30   34 1
    46    1   44 1
    47    2   45 1
    48    3   46 1
    49    4   47 1
    50   11   48 1
    51   11   49 1
    52   12   50 1
    53   12   51 1
    54   13   52 1
    55   13   53 1
    56   14   54 1
    57   14   55 1
    58   15   56 1
    59   16   57 1
    60   17   58 1
    61   18   59 1
    62   19   60 1
    63   19   61 1
    64   19   62 1
    65   20   63 1
    66   20   64 1
    67   20   65 1
    68   21   66 1
    69   21   67 1
    70   22   68 1
    71   22   69 1
    72   23   70 1
    73   23   71 1
    74   24   72 1
    75   24   73 1
    76   25   74 1
    77   25   75 1
    78   26   76 1
    79   26   77 1
    80   27   78 1
    81   28   79 1
    82   29   80 1
    83   30   81 1
    84   32   82 1
    85   32   83 1
    86   33   84 1
    87   33   85 1
    88   34   86 1
    89   35   87 1
    90   36   88 1
    91   40   89 1
    92   41   90 1
    93   42   91 1
    94   43   92 1
@<TRIPOS>MOLECULE
1a2c_ligand_242
   92    94     0     0     0
SMALL
USER_CHARGES

mmff94s_NoEstat = 123.03
@<TRIPOS>ATOM
      1 C1         -5.1167   -4.6157   -4.5336 C.ar      1 <0>        -0.0708
      2 C2         -4.1111   -6.0254   -2.8488 C.ar      1 <0>        -0.0872
      3 C3         -4.9398   -5.6231   -5.4821 C.ar      1 <0>        -0.2241
      4 C4         -3.9342   -7.0328   -3.7973 C.ar      1 <0>        -0.1600
      5 C5         -4.7001   -4.8304   -3.2297 C.ar      1 <0>        -0.1356
      6 C6         -4.3485   -6.8316   -5.1139 C.ar      1 <0>         0.1290
      7 C7         -0.0512   -1.0561    0.2993 C.2       1 <0>         0.6664
      8 C8         -1.8469   -3.0457    2.1630 C.2       1 <0>         0.6651
      9 C9         -3.6974   -2.0123   -0.8263 C.2       1 <0>         0.6454
     10 C10        -3.5186    4.2859    0.9526 C.cat     1 <0>         0.6349
     11 C11         2.5186   -3.1911    0.6823 C.3       1 <0>        -0.0642
     12 C12         2.4580   -4.6414    0.2376 C.3       1 <0>        -0.0747
     13 C13         1.4874   -1.4827    2.2418 C.3       1 <0>        -0.0873
     14 C14         0.4946   -5.0934    1.7133 C.3       1 <0>        -0.1371
     15 C15         0.0412   -1.4176    1.7503 C.3       1 <0>         0.0360
     16 C16         1.8865   -2.9529    2.0632 C.3       1 <0>        -0.0720
     17 C17         0.5665   -3.7001    2.3454 C.3       1 <0>         0.1201
     18 C18         1.0248   -5.1525    0.2868 C.3       1 <0>         0.1453
     19 C19        -3.4345   -0.1597    3.7904 C.3       1 <0>        -0.0968
     20 C20        -3.1391   -2.5257    4.5483 C.3       1 <0>        -0.0986
     21 C21        -4.8923   -3.7401   -2.2028 C.3       1 <0>        -0.0191
     22 C22        -1.2019    2.6554   -0.7648 C.3       1 <0>        -0.1009
     23 C23        -0.8794    1.4488   -1.6540 C.3       1 <0>        -0.0942
     24 C24        -4.1436   -2.0954    2.2850 C.3       1 <0>        -0.0988
     25 C25        -2.5638    3.2498   -1.1169 C.3       1 <0>         0.1966
     26 C26         1.6856    1.6412   -1.5001 C.3       1 <0>         0.1128
     27 C27        -2.8325   -2.1090    1.5076 C.3       1 <0>         0.0786
     28 C28        -3.6869   -2.7967   -2.1325 C.3       1 <0>         0.0744
     29 C29        -4.0154   -1.5731    3.7302 C.3       1 <0>        -0.0678
     30 C30         0.4555    0.7445   -1.3388 C.3       1 <0>         0.1065
     31 N1         -0.4979   -2.7598    1.9615 N.am      1 <0>        -0.4315
     32 N2         -3.7598    5.4109    1.7343 N.pl3     1 <0>        -0.8671
     33 N3         -3.9598    3.0442    1.3972 N.pl3     1 <0>        -0.8581
     34 N4          0.4455    0.1980   -0.0008 N.am      1 <0>        -0.5687
     35 N5         -2.9650   -2.6361    0.1813 N.am      1 <0>        -0.5746
     36 N6         -2.8388    4.3887   -0.2734 N.pl3     1 <0>        -0.7533
     37 O1         -0.5362   -1.8555   -0.4928 O.2       1 <0>        -0.5843
     38 O2         -2.2659   -3.9924    2.8322 O.2       1 <0>        -0.6812
     39 O3         -4.3065   -0.9527   -0.6974 O.2       1 <0>        -0.5788
     40 O4         -4.1773   -7.8152   -6.0391 O.3       1 <0>        -0.4938
     41 O5          0.9879   -6.5072   -0.1510 O.3       1 <0>        -0.6030
     42 O6          2.8639    0.9021   -1.2063 O.3       1 <0>        -0.5860
     43 O7         -3.7616   -1.8713   -3.2074 O.3       1 <0>        -0.6021
     44 H1         -5.5781   -3.6776   -4.8299 H         1 <0>         0.1412
     45 H2         -3.7855   -6.1911   -1.8251 H         1 <0>         0.1451
     46 H3         -5.2647   -5.4604   -6.5059 H         1 <0>         0.1336
     47 H4         -3.4737   -7.9726   -3.5041 H         1 <0>         0.1567
     48 H5          3.5627   -2.8549    0.7003 H         1 <0>         0.0649
     49 H6          2.0259   -2.5829   -0.0837 H         1 <0>         0.0476
     50 H7          2.8567   -4.7427   -0.7790 H         1 <0>         0.0641
     51 H8          3.1032   -5.2618    0.8729 H         1 <0>         0.0484
     52 H9          2.1569   -0.7868    1.7257 H         1 <0>         0.0596
     53 H10         1.5124   -1.2395    3.3116 H         1 <0>         0.0757
     54 H11         1.0921   -5.7802    2.3299 H         1 <0>         0.0782
     55 H12        -0.5175   -5.5090    1.7393 H         1 <0>         0.0812
     56 H13        -0.5378   -0.6778    2.3126 H         1 <0>         0.0731
     57 H14         2.6304   -3.2407    2.8169 H         1 <0>         0.0511
     58 H15         0.4523   -3.8218    3.4319 H         1 <0>         0.0753
     59 H16         0.3841   -4.5700   -0.3844 H         1 <0>         0.0427
     60 H17        -3.2863    0.1550    4.8292 H         1 <0>         0.0450
     61 H18        -4.1066    0.5680    3.3260 H         1 <0>         0.0406
     62 H19        -2.4667   -0.1061    3.2804 H         1 <0>         0.0274
     63 H20        -2.1236   -2.5806    4.1412 H         1 <0>         0.0476
     64 H21        -3.0691   -2.1929    5.5894 H         1 <0>         0.0170
     65 H22        -3.5594   -3.5370    4.5502 H         1 <0>         0.0477
     66 H23        -5.0697   -4.1980   -1.2205 H         1 <0>         0.0814
     67 H24        -5.8113   -3.1931   -2.4481 H         1 <0>         0.0685
     68 H25        -1.2036    2.3575    0.2901 H         1 <0>         0.1016
     69 H26        -0.4298    3.4262   -0.8760 H         1 <0>         0.0660
     70 H27        -0.8663    1.7736   -2.7033 H         1 <0>         0.0512
     71 H28        -1.6959    0.7195   -1.5759 H         1 <0>         0.0454
     72 H29        -4.5642   -3.1100    2.3009 H         1 <0>         0.0575
     73 H30        -4.8775   -1.4748    1.7520 H         1 <0>         0.0743
     74 H31        -3.3520    2.5022   -0.9783 H         1 <0>         0.0662
     75 H32        -2.5848    3.5678   -2.1644 H         1 <0>         0.0622
     76 H33         1.6463    2.5133   -0.8391 H         1 <0>         0.0321
     77 H34         1.7645    2.0016   -2.5321 H         1 <0>         0.0204
     78 H35        -2.3644   -1.1272    1.4485 H         1 <0>         0.0749
     79 H36        -2.7406   -3.3442   -2.2154 H         1 <0>         0.0719
     80 H37        -5.0090   -1.5561    4.1946 H         1 <0>         0.0609
     81 H38         0.5463   -0.0881   -2.0483 H         1 <0>         0.1063
     82 H39        -3.4544    6.3380    1.4507 H         1 <0>         0.4792
     83 H40        -4.2515    5.3349    2.6217 H         1 <0>         0.4819
     84 H41        -3.8001    2.2013    0.8508 H         1 <0>         0.4802
     85 H42        -4.4547    2.9466    2.2805 H         1 <0>         0.4826
     86 H43         0.8216    0.7626    0.7549 H         1 <0>         0.3101
     87 H44        -2.4970   -3.5171   -0.0370 H         1 <0>         0.3087
     88 H45        -2.5354    5.3292   -0.5536 H         1 <0>         0.4846
     89 H46        -4.0172   -7.4289   -6.9149 H         1 <0>         0.4194
     90 H47         1.8515   -6.8926    0.0654 H         1 <0>         0.4036
     91 H48         2.9483    0.8828   -0.2393 H         1 <0>         0.4114
     92 H49        -4.4012   -2.2307   -3.8437 H         1 <0>         0.3944
@<TRIPOS>BOND
     1    1    3 ar
     2    1    5 ar
     3    2    4 ar
     4    2    5 ar
     5    3    6 ar
     6    4    6 ar
     7    5   21 1
     8    6   40 1
     9    7   15 1
    10    7   34 am
    11    7   37 2
    12    8   27 1
    13    8   31 am
    14    8   38 2
    15    9   28 1
    16    9   35 am
    17    9   39 2
    18   10   32 1
    19   10   33 1
    20   10   36 1
    21   11   12 1
    22   11   16 1
    23   12   18 1
    24   13   15 1
    25   13   16 1
    26   14   17 1
    27   14   18 1
    28   15   31 1
    29   16   17 1
    30   17   31 1
    31   18   41 1
    32   19   29 1
    33   20   29 1
    34   21   28 1
    35   22   23 1
    36   22   25 1
    37   23   30 1
    38   24   27 1
    39   24   29 1
    40   25   36 1
    41   26   30 1
    42   26   42 1
    43   27   35 1
    44   28   43 1
    45   30   34 1
    46    1   44 1
    47    2   45 1
    48    3   46 1
    49    4   47 1
    50   11   48 1
    51   11   49 1
    52   12   50 1
    53   12   51 1
    54   13   52 1
    55   13   53 1
    56   14   54 1
    57   14   55 1
    58   15   56 1
    59   16   57 1
    60   17   58 1
    61   18   59 1
    62   19   60 1
    63   19   61 1
    64   19   62 1
    65   20   63 1
    66   20   64 1
    67   20   65 1
    68   21   66 1
    69   21   67 1
    70   22   68 1
    71   22   69 1
    72   23   70 1
    73   23   71 1
    74   24   72 1
    75   24   73 1
    76   25   74 1
    77   25   75 1
    78   26   76 1
    79   26   77 1
    80   27   78 1
    81   28   79 1
    82   29   80 1
    83   30   81 1
    84   32   82 1
    85   32   83 1
    86   33   84 1
    87   33   85 1
    88   34   86 1
    89   35   87 1
    90   36   88 1
    91   40   89 1
    92   41   90 1
    93   42   91 1
    94   43   92 1
@<TRIPOS>MOLECULE
1a2c_ligand_243
   92    94     0     0     0
SMALL
USER_CHARGES

mmff94s_NoEstat = 123.13
@<TRIPOS>ATOM
      1 C1         -4.6714   -3.3987   -5.2609 C.ar      1 <0>        -0.0708
      2 C2         -5.9688   -4.6770   -3.6736 C.ar      1 <0>        -0.0872
      3 C3         -4.9033   -4.3712   -6.2336 C.ar      1 <0>        -0.2241
      4 C4         -6.2008   -5.6495   -4.6463 C.ar      1 <0>        -0.1600
      5 C5         -5.2073   -3.5646   -3.9940 C.ar      1 <0>        -0.1356
      6 C6         -5.6680   -5.4966   -5.9263 C.ar      1 <0>         0.1290
      7 C7         -0.0512   -1.0561    0.2993 C.2       1 <0>         0.6664
      8 C8         -1.8469   -3.0457    2.1630 C.2       1 <0>         0.6651
      9 C9         -3.6974   -2.0123   -0.8263 C.2       1 <0>         0.6454
     10 C10        -2.6672    5.4277   -0.3386 C.cat     1 <0>         0.6349
     11 C11         2.5186   -3.1911    0.6823 C.3       1 <0>        -0.0642
     12 C12         2.4580   -4.6414    0.2376 C.3       1 <0>        -0.0747
     13 C13         1.4874   -1.4827    2.2418 C.3       1 <0>        -0.0873
     14 C14         0.4946   -5.0934    1.7133 C.3       1 <0>        -0.1371
     15 C15         0.0412   -1.4176    1.7503 C.3       1 <0>         0.0360
     16 C16         1.8865   -2.9529    2.0632 C.3       1 <0>        -0.0720
     17 C17         0.5665   -3.7001    2.3454 C.3       1 <0>         0.1201
     18 C18         1.0248   -5.1525    0.2868 C.3       1 <0>         0.1453
     19 C19        -3.4345   -0.1597    3.7904 C.3       1 <0>        -0.0968
     20 C20        -3.1391   -2.5257    4.5483 C.3       1 <0>        -0.0986
     21 C21        -4.9567   -2.5115   -2.9411 C.3       1 <0>        -0.0191
     22 C22        -1.8968    1.7896   -1.0188 C.3       1 <0>        -0.1009
     23 C23        -0.4337    2.0012   -1.4250 C.3       1 <0>        -0.0942
     24 C24        -4.1436   -2.0954    2.2850 C.3       1 <0>        -0.0988
     25 C25        -2.7062    3.0733   -1.1890 C.3       1 <0>         0.1966
     26 C26         1.9058    0.9774   -1.7696 C.3       1 <0>         0.1128
     27 C27        -2.8325   -2.1090    1.5076 C.3       1 <0>         0.0786
     28 C28        -3.6869   -2.7967   -2.1325 C.3       1 <0>         0.0744
     29 C29        -4.0154   -1.5731    3.7302 C.3       1 <0>        -0.0678
     30 C30         0.4555    0.7445   -1.3388 C.3       1 <0>         0.1065
     31 N1         -0.4979   -2.7598    1.9615 N.am      1 <0>        -0.4315
     32 N2         -2.0958    6.4072    0.4670 N.pl3     1 <0>        -0.8671
     33 N3         -3.7703    5.7519   -1.1209 N.pl3     1 <0>        -0.8581
     34 N4          0.4455    0.1980   -0.0008 N.am      1 <0>        -0.5687
     35 N5         -2.9650   -2.6361    0.1813 N.am      1 <0>        -0.5746
     36 N6         -2.1460    4.1226   -0.3710 N.pl3     1 <0>        -0.7533
     37 O1         -0.5362   -1.8555   -0.4928 O.2       1 <0>        -0.5843
     38 O2         -2.2659   -3.9924    2.8322 O.2       1 <0>        -0.6812
     39 O3         -4.3065   -0.9527   -0.6974 O.2       1 <0>        -0.5788
     40 O4         -5.8957   -6.4447   -6.8760 O.3       1 <0>        -0.4938
     41 O5          0.9879   -6.5072   -0.1510 O.3       1 <0>        -0.6030
     42 O6          2.5087    1.9525   -0.9290 O.3       1 <0>        -0.5860
     43 O7         -2.5564   -2.3866   -2.8882 O.3       1 <0>        -0.6021
     44 H1         -4.0743   -2.5256   -5.5096 H         1 <0>         0.1412
     45 H2         -6.3881   -4.8044   -2.6789 H         1 <0>         0.1451
     46 H3         -4.4858   -4.2463   -7.2288 H         1 <0>         0.1336
     47 H4         -6.7982   -6.5237   -4.4010 H         1 <0>         0.1567
     48 H5          3.5627   -2.8549    0.7003 H         1 <0>         0.0649
     49 H6          2.0259   -2.5829   -0.0837 H         1 <0>         0.0476
     50 H7          2.8567   -4.7427   -0.7790 H         1 <0>         0.0641
     51 H8          3.1032   -5.2618    0.8729 H         1 <0>         0.0484
     52 H9          2.1569   -0.7868    1.7257 H         1 <0>         0.0596
     53 H10         1.5124   -1.2395    3.3116 H         1 <0>         0.0757
     54 H11         1.0921   -5.7802    2.3299 H         1 <0>         0.0782
     55 H12        -0.5175   -5.5090    1.7393 H         1 <0>         0.0812
     56 H13        -0.5378   -0.6778    2.3126 H         1 <0>         0.0731
     57 H14         2.6304   -3.2407    2.8169 H         1 <0>         0.0511
     58 H15         0.4523   -3.8218    3.4319 H         1 <0>         0.0753
     59 H16         0.3841   -4.5700   -0.3844 H         1 <0>         0.0427
     60 H17        -3.2863    0.1550    4.8292 H         1 <0>         0.0450
     61 H18        -4.1066    0.5680    3.3260 H         1 <0>         0.0406
     62 H19        -2.4667   -0.1061    3.2804 H         1 <0>         0.0274
     63 H20        -2.1236   -2.5806    4.1412 H         1 <0>         0.0476
     64 H21        -3.0691   -2.1929    5.5894 H         1 <0>         0.0170
     65 H22        -3.5594   -3.5370    4.5502 H         1 <0>         0.0477
     66 H23        -5.8255   -2.4582   -2.2714 H         1 <0>         0.0814
     67 H24        -4.9010   -1.5342   -3.4370 H         1 <0>         0.0685
     68 H25        -2.3478    0.9988   -1.6296 H         1 <0>         0.1016
     69 H26        -1.9571    1.4582    0.0248 H         1 <0>         0.0660
     70 H27         0.0021    2.7844   -0.7898 H         1 <0>         0.0512
     71 H28        -0.4008    2.3932   -2.4497 H         1 <0>         0.0454
     72 H29        -4.5642   -3.1100    2.3009 H         1 <0>         0.0575
     73 H30        -4.8775   -1.4748    1.7520 H         1 <0>         0.0743
     74 H31        -3.7481    2.9073   -0.8955 H         1 <0>         0.0662
     75 H32        -2.7006    3.3948   -2.2356 H         1 <0>         0.0622
     76 H33         1.9749    1.3199   -2.8074 H         1 <0>         0.0321
     77 H34         2.4858    0.0519   -1.6791 H         1 <0>         0.0204
     78 H35        -2.3644   -1.1272    1.4485 H         1 <0>         0.0749
     79 H36        -3.5820   -3.8651   -1.9094 H         1 <0>         0.0719
     80 H37        -5.0090   -1.5561    4.1946 H         1 <0>         0.0609
     81 H38         0.0149    0.0012   -2.0158 H         1 <0>         0.1063
     82 H39        -1.2903    6.2156    1.0567 H         1 <0>         0.4792
     83 H40        -2.4745    7.3512    0.4899 H         1 <0>         0.4819
     84 H41        -4.2125    5.0601   -1.7212 H         1 <0>         0.4802
     85 H42        -4.1632    6.6901   -1.1140 H         1 <0>         0.4826
     86 H43         0.8216    0.7626    0.7549 H         1 <0>         0.3101
     87 H44        -2.4970   -3.5171   -0.0370 H         1 <0>         0.3087
     88 H45        -1.3309    3.9380    0.2262 H         1 <0>         0.4846
     89 H46        -5.1365   -6.5076   -7.4772 H         1 <0>         0.4194
     90 H47         1.8515   -6.8926    0.0654 H         1 <0>         0.4036
     91 H48         2.2238    2.8203   -1.2580 H         1 <0>         0.4114
     92 H49        -2.8568   -2.2745   -3.8049 H         1 <0>         0.3944
@<TRIPOS>BOND
     1    1    3 ar
     2    1    5 ar
     3    2    4 ar
     4    2    5 ar
     5    3    6 ar
     6    4    6 ar
     7    5   21 1
     8    6   40 1
     9    7   15 1
    10    7   34 am
    11    7   37 2
    12    8   27 1
    13    8   31 am
    14    8   38 2
    15    9   28 1
    16    9   35 am
    17    9   39 2
    18   10   32 1
    19   10   33 1
    20   10   36 1
    21   11   12 1
    22   11   16 1
    23   12   18 1
    24   13   15 1
    25   13   16 1
    26   14   17 1
    27   14   18 1
    28   15   31 1
    29   16   17 1
    30   17   31 1
    31   18   41 1
    32   19   29 1
    33   20   29 1
    34   21   28 1
    35   22   23 1
    36   22   25 1
    37   23   30 1
    38   24   27 1
    39   24   29 1
    40   25   36 1
    41   26   30 1
    42   26   42 1
    43   27   35 1
    44   28   43 1
    45   30   34 1
    46    1   44 1
    47    2   45 1
    48    3   46 1
    49    4   47 1
    50   11   48 1
    51   11   49 1
    52   12   50 1
    53   12   51 1
    54   13   52 1
    55   13   53 1
    56   14   54 1
    57   14   55 1
    58   15   56 1
    59   16   57 1
    60   17   58 1
    61   18   59 1
    62   19   60 1
    63   19   61 1
    64   19   62 1
    65   20   63 1
    66   20   64 1
    67   20   65 1
    68   21   66 1
    69   21   67 1
    70   22   68 1
    71   22   69 1
    72   23   70 1
    73   23   71 1
    74   24   72 1
    75   24   73 1
    76   25   74 1
    77   25   75 1
    78   26   76 1
    79   26   77 1
    80   27   78 1
    81   28   79 1
    82   29   80 1
    83   30   81 1
    84   32   82 1
    85   32   83 1
    86   33   84 1
    87   33   85 1
    88   34   86 1
    89   35   87 1
    90   36   88 1
    91   40   89 1
    92   41   90 1
    93   42   91 1
    94   43   92 1
@<TRIPOS>MOLECULE
1a2c_ligand_244
   92    94     0     0     0
SMALL
USER_CHARGES

mmff94s_NoEstat = 123.29
@<TRIPOS>ATOM
      1 C1         -4.2392   -5.9780   -1.3001 C.ar      1 <0>        -0.0708
      2 C2         -5.4986   -4.4731    0.1092 C.ar      1 <0>        -0.0872
      3 C3         -4.2247   -6.9249   -0.2760 C.ar      1 <0>        -0.2241
      4 C4         -5.4841   -5.4200    1.1333 C.ar      1 <0>        -0.1600
      5 C5         -4.8760   -4.7649   -1.0938 C.ar      1 <0>        -0.1356
      6 C6         -4.8472   -6.6459    0.9408 C.ar      1 <0>         0.1290
      7 C7         -0.0512   -1.0561    0.2993 C.2       1 <0>         0.6664
      8 C8         -1.8469   -3.0457    2.1630 C.2       1 <0>         0.6651
      9 C9         -3.6974   -2.0123   -0.8263 C.2       1 <0>         0.6454
     10 C10        -4.7581    2.2187   -1.0418 C.cat     1 <0>         0.6349
     11 C11         2.5186   -3.1911    0.6823 C.3       1 <0>        -0.0642
     12 C12         2.4580   -4.6414    0.2376 C.3       1 <0>        -0.0747
     13 C13         1.4874   -1.4827    2.2418 C.3       1 <0>        -0.0873
     14 C14         0.4946   -5.0934    1.7133 C.3       1 <0>        -0.1371
     15 C15         0.0412   -1.4176    1.7503 C.3       1 <0>         0.0360
     16 C16         1.8865   -2.9529    2.0632 C.3       1 <0>        -0.0720
     17 C17         0.5665   -3.7001    2.3454 C.3       1 <0>         0.1201
     18 C18         1.0248   -5.1525    0.2868 C.3       1 <0>         0.1453
     19 C19        -3.4345   -0.1597    3.7904 C.3       1 <0>        -0.0968
     20 C20        -3.1391   -2.5257    4.5483 C.3       1 <0>        -0.0986
     21 C21        -4.8923   -3.7401   -2.2028 C.3       1 <0>        -0.0191
     22 C22        -1.0374    2.7415   -0.6235 C.3       1 <0>        -0.1009
     23 C23         0.2513    2.2726   -1.3090 C.3       1 <0>        -0.0942
     24 C24        -4.1436   -2.0954    2.2850 C.3       1 <0>        -0.0988
     25 C25        -2.2684    2.1304   -1.2894 C.3       1 <0>         0.1966
     26 C26         1.7383    0.3016   -2.0469 C.3       1 <0>         0.1128
     27 C27        -2.8325   -2.1090    1.5076 C.3       1 <0>         0.0786
     28 C28        -3.6869   -2.7967   -2.1325 C.3       1 <0>         0.0744
     29 C29        -4.0154   -1.5731    3.7302 C.3       1 <0>        -0.0678
     30 C30         0.4555    0.7445   -1.3388 C.3       1 <0>         0.1065
     31 N1         -0.4979   -2.7598    1.9615 N.am      1 <0>        -0.4315
     32 N2         -5.8857    2.6895   -0.3772 N.pl3     1 <0>        -0.8671
     33 N3         -4.9183    1.3635   -2.1267 N.pl3     1 <0>        -0.8581
     34 N4          0.4455    0.1980   -0.0008 N.am      1 <0>        -0.5687
     35 N5         -2.9650   -2.6361    0.1813 N.am      1 <0>        -0.5746
     36 N6         -3.4671    2.5948   -0.6325 N.pl3     1 <0>        -0.7533
     37 O1         -0.5362   -1.8555   -0.4928 O.2       1 <0>        -0.5843
     38 O2         -2.2659   -3.9924    2.8322 O.2       1 <0>        -0.6812
     39 O3         -4.3065   -0.9527   -0.6974 O.2       1 <0>        -0.5788
     40 O4         -4.8344   -7.5706    1.9395 O.3       1 <0>        -0.4938
     41 O5          0.9879   -6.5072   -0.1510 O.3       1 <0>        -0.6030
     42 O6          2.8703    0.8436   -1.3793 O.3       1 <0>        -0.5860
     43 O7         -3.7616   -1.8713   -3.2074 O.3       1 <0>        -0.6021
     44 H1         -3.7514   -6.2044   -2.2444 H         1 <0>         0.1412
     45 H2         -5.9976   -3.5207    0.2680 H         1 <0>         0.1451
     46 H3         -3.7270   -7.8780   -0.4321 H         1 <0>         0.1336
     47 H4         -5.9717   -5.1971    2.0787 H         1 <0>         0.1567
     48 H5          3.5627   -2.8549    0.7003 H         1 <0>         0.0649
     49 H6          2.0259   -2.5829   -0.0837 H         1 <0>         0.0476
     50 H7          2.8567   -4.7427   -0.7790 H         1 <0>         0.0641
     51 H8          3.1032   -5.2618    0.8729 H         1 <0>         0.0484
     52 H9          2.1569   -0.7868    1.7257 H         1 <0>         0.0596
     53 H10         1.5124   -1.2395    3.3116 H         1 <0>         0.0757
     54 H11         1.0921   -5.7802    2.3299 H         1 <0>         0.0782
     55 H12        -0.5175   -5.5090    1.7393 H         1 <0>         0.0812
     56 H13        -0.5378   -0.6778    2.3126 H         1 <0>         0.0731
     57 H14         2.6304   -3.2407    2.8169 H         1 <0>         0.0511
     58 H15         0.4523   -3.8218    3.4319 H         1 <0>         0.0753
     59 H16         0.3841   -4.5700   -0.3844 H         1 <0>         0.0427
     60 H17        -3.2863    0.1550    4.8292 H         1 <0>         0.0450
     61 H18        -4.1066    0.5680    3.3260 H         1 <0>         0.0406
     62 H19        -2.4667   -0.1061    3.2804 H         1 <0>         0.0274
     63 H20        -2.1236   -2.5806    4.1412 H         1 <0>         0.0476
     64 H21        -3.0691   -2.1929    5.5894 H         1 <0>         0.0170
     65 H22        -3.5594   -3.5370    4.5502 H         1 <0>         0.0477
     66 H23        -5.8253   -3.1635   -2.1465 H         1 <0>         0.0814
     67 H24        -4.9261   -4.2708   -3.1626 H         1 <0>         0.0685
     68 H25        -1.0263    2.4588    0.4356 H         1 <0>         0.1016
     69 H26        -1.1105    3.8350   -0.6596 H         1 <0>         0.0660
     70 H27         1.1110    2.7323   -0.8028 H         1 <0>         0.0512
     71 H28         0.2685    2.6560   -2.3373 H         1 <0>         0.0454
     72 H29        -4.5642   -3.1100    2.3009 H         1 <0>         0.0575
     73 H30        -4.8775   -1.4748    1.7520 H         1 <0>         0.0743
     74 H31        -2.2283    1.0375   -1.2319 H         1 <0>         0.0662
     75 H32        -2.3103    2.4085   -2.3475 H         1 <0>         0.0622
     76 H33         1.7614    0.6251   -3.0928 H         1 <0>         0.0321
     77 H34         1.8289   -0.7905   -2.0281 H         1 <0>         0.0204
     78 H35        -2.3644   -1.1272    1.4485 H         1 <0>         0.0749
     79 H36        -2.7406   -3.3442   -2.2154 H         1 <0>         0.0719
     80 H37        -5.0090   -1.5561    4.1946 H         1 <0>         0.0609
     81 H38        -0.3978    0.3245   -1.8868 H         1 <0>         0.1063
     82 H39        -5.8171    3.3144    0.4215 H         1 <0>         0.4792
     83 H40        -6.8195    2.4159   -0.6742 H         1 <0>         0.4819
     84 H41        -4.1156    1.0007   -2.6351 H         1 <0>         0.4802
     85 H42        -5.8430    1.0792   -2.4410 H         1 <0>         0.4826
     86 H43         0.8216    0.7626    0.7549 H         1 <0>         0.3101
     87 H44        -2.4970   -3.5171   -0.0370 H         1 <0>         0.3087
     88 H45        -3.4066    3.2281    0.1740 H         1 <0>         0.4846
     89 H46        -4.0150   -8.0895    1.9069 H         1 <0>         0.4194
     90 H47         1.8515   -6.8926    0.0654 H         1 <0>         0.4036
     91 H48         2.9636    1.7601   -1.6856 H         1 <0>         0.4114
     92 H49        -4.4012   -2.2307   -3.8437 H         1 <0>         0.3944
@<TRIPOS>BOND
     1    1    3 ar
     2    1    5 ar
     3    2    4 ar
     4    2    5 ar
     5    3    6 ar
     6    4    6 ar
     7    5   21 1
     8    6   40 1
     9    7   15 1
    10    7   34 am
    11    7   37 2
    12    8   27 1
    13    8   31 am
    14    8   38 2
    15    9   28 1
    16    9   35 am
    17    9   39 2
    18   10   32 1
    19   10   33 1
    20   10   36 1
    21   11   12 1
    22   11   16 1
    23   12   18 1
    24   13   15 1
    25   13   16 1
    26   14   17 1
    27   14   18 1
    28   15   31 1
    29   16   17 1
    30   17   31 1
    31   18   41 1
    32   19   29 1
    33   20   29 1
    34   21   28 1
    35   22   23 1
    36   22   25 1
    37   23   30 1
    38   24   27 1
    39   24   29 1
    40   25   36 1
    41   26   30 1
    42   26   42 1
    43   27   35 1
    44   28   43 1
    45   30   34 1
    46    1   44 1
    47    2   45 1
    48    3   46 1
    49    4   47 1
    50   11   48 1
    51   11   49 1
    52   12   50 1
    53   12   51 1
    54   13   52 1
    55   13   53 1
    56   14   54 1
    57   14   55 1
    58   15   56 1
    59   16   57 1
    60   17   58 1
    61   18   59 1
    62   19   60 1
    63   19   61 1
    64   19   62 1
    65   20   63 1
    66   20   64 1
    67   20   65 1
    68   21   66 1
    69   21   67 1
    70   22   68 1
    71   22   69 1
    72   23   70 1
    73   23   71 1
    74   24   72 1
    75   24   73 1
    76   25   74 1
    77   25   75 1
    78   26   76 1
    79   26   77 1
    80   27   78 1
    81   28   79 1
    82   29   80 1
    83   30   81 1
    84   32   82 1
    85   32   83 1
    86   33   84 1
    87   33   85 1
    88   34   86 1
    89   35   87 1
    90   36   88 1
    91   40   89 1
    92   41   90 1
    93   42   91 1
    94   43   92 1
@<TRIPOS>MOLECULE
1a2c_ligand_245
   92    94     0     0     0
SMALL
USER_CHARGES

mmff94s_NoEstat = 123.32
@<TRIPOS>ATOM
      1 C1         -5.4643   -5.6044   -2.4089 C.ar      1 <0>        -0.0708
      2 C2         -6.3330   -4.1875   -0.6554 C.ar      1 <0>        -0.0872
      3 C3         -5.9632   -6.7273   -1.7487 C.ar      1 <0>        -0.2241
      4 C4         -6.8319   -5.3103    0.0048 C.ar      1 <0>        -0.1600
      5 C5         -5.6560   -4.3496   -1.8535 C.ar      1 <0>        -0.1356
      6 C6         -6.6470   -6.5803   -0.5418 C.ar      1 <0>         0.1290
      7 C7         -0.0512   -1.0561    0.2993 C.2       1 <0>         0.6664
      8 C8         -1.8469   -3.0457    2.1630 C.2       1 <0>         0.6651
      9 C9         -3.6974   -2.0123   -0.8263 C.2       1 <0>         0.6454
     10 C10         0.1087    6.2839    0.0320 C.cat     1 <0>         0.6349
     11 C11         2.5186   -3.1911    0.6823 C.3       1 <0>        -0.0642
     12 C12         2.4580   -4.6414    0.2376 C.3       1 <0>        -0.0747
     13 C13         1.4874   -1.4827    2.2418 C.3       1 <0>        -0.0873
     14 C14         0.4946   -5.0934    1.7133 C.3       1 <0>        -0.1371
     15 C15         0.0412   -1.4176    1.7503 C.3       1 <0>         0.0360
     16 C16         1.8865   -2.9529    2.0632 C.3       1 <0>        -0.0720
     17 C17         0.5665   -3.7001    2.3454 C.3       1 <0>         0.1201
     18 C18         1.0248   -5.1525    0.2868 C.3       1 <0>         0.1453
     19 C19        -3.4345   -0.1597    3.7904 C.3       1 <0>        -0.0968
     20 C20        -3.1391   -2.5257    4.5483 C.3       1 <0>        -0.0986
     21 C21        -5.1165   -3.1339   -2.5686 C.3       1 <0>        -0.0191
     22 C22        -1.0374    2.7415   -0.6235 C.3       1 <0>        -0.1009
     23 C23         0.2513    2.2726   -1.3090 C.3       1 <0>        -0.0942
     24 C24        -4.1436   -2.0954    2.2850 C.3       1 <0>        -0.0988
     25 C25        -1.1758    4.2607   -0.6924 C.3       1 <0>         0.1966
     26 C26         1.7383    0.3016   -2.0469 C.3       1 <0>         0.1128
     27 C27        -2.8325   -2.1090    1.5076 C.3       1 <0>         0.0786
     28 C28        -3.6869   -2.7967   -2.1325 C.3       1 <0>         0.0744
     29 C29        -4.0154   -1.5731    3.7302 C.3       1 <0>        -0.0678
     30 C30         0.4555    0.7445   -1.3388 C.3       1 <0>         0.1065
     31 N1         -0.4979   -2.7598    1.9615 N.am      1 <0>        -0.4315
     32 N2          1.2089    6.8461    0.6711 N.pl3     1 <0>        -0.8671
     33 N3         -0.8437    7.1205   -0.5399 N.pl3     1 <0>        -0.8581
     34 N4          0.4455    0.1980   -0.0008 N.am      1 <0>        -0.5687
     35 N5         -2.9650   -2.6361    0.1813 N.am      1 <0>        -0.5746
     36 N6         -0.0506    4.8893   -0.0421 N.pl3     1 <0>        -0.7533
     37 O1         -0.5362   -1.8555   -0.4928 O.2       1 <0>        -0.5843
     38 O2         -2.2659   -3.9924    2.8322 O.2       1 <0>        -0.6812
     39 O3         -4.3065   -0.9527   -0.6974 O.2       1 <0>        -0.5788
     40 O4         -7.1351   -7.6758    0.1017 O.3       1 <0>        -0.4938
     41 O5          0.9879   -6.5072   -0.1510 O.3       1 <0>        -0.6030
     42 O6          2.8703    0.8436   -1.3793 O.3       1 <0>        -0.5860
     43 O7         -3.0778   -1.9902   -3.1305 O.3       1 <0>        -0.6021
     44 H1         -4.9329   -5.7289   -3.3485 H         1 <0>         0.1412
     45 H2         -6.4821   -3.2018   -0.2222 H         1 <0>         0.1451
     46 H3         -5.8161   -7.7137   -2.1796 H         1 <0>         0.1336
     47 H4         -7.3646   -5.1892    0.9444 H         1 <0>         0.1567
     48 H5          3.5627   -2.8549    0.7003 H         1 <0>         0.0649
     49 H6          2.0259   -2.5829   -0.0837 H         1 <0>         0.0476
     50 H7          2.8567   -4.7427   -0.7790 H         1 <0>         0.0641
     51 H8          3.1032   -5.2618    0.8729 H         1 <0>         0.0484
     52 H9          2.1569   -0.7868    1.7257 H         1 <0>         0.0596
     53 H10         1.5124   -1.2395    3.3116 H         1 <0>         0.0757
     54 H11         1.0921   -5.7802    2.3299 H         1 <0>         0.0782
     55 H12        -0.5175   -5.5090    1.7393 H         1 <0>         0.0812
     56 H13        -0.5378   -0.6778    2.3126 H         1 <0>         0.0731
     57 H14         2.6304   -3.2407    2.8169 H         1 <0>         0.0511
     58 H15         0.4523   -3.8218    3.4319 H         1 <0>         0.0753
     59 H16         0.3841   -4.5700   -0.3844 H         1 <0>         0.0427
     60 H17        -3.2863    0.1550    4.8292 H         1 <0>         0.0450
     61 H18        -4.1066    0.5680    3.3260 H         1 <0>         0.0406
     62 H19        -2.4667   -0.1061    3.2804 H         1 <0>         0.0274
     63 H20        -2.1236   -2.5806    4.1412 H         1 <0>         0.0476
     64 H21        -3.0691   -2.1929    5.5894 H         1 <0>         0.0170
     65 H22        -3.5594   -3.5370    4.5502 H         1 <0>         0.0477
     66 H23        -5.7798   -2.2797   -2.3772 H         1 <0>         0.0814
     67 H24        -5.1695   -3.3174   -3.6492 H         1 <0>         0.0685
     68 H25        -1.9092    2.2808   -1.1025 H         1 <0>         0.1016
     69 H26        -1.0467    2.4234    0.4259 H         1 <0>         0.0660
     70 H27         1.1110    2.7323   -0.8028 H         1 <0>         0.0512
     71 H28         0.2685    2.6560   -2.3373 H         1 <0>         0.0454
     72 H29        -4.5642   -3.1100    2.3009 H         1 <0>         0.0575
     73 H30        -4.8775   -1.4748    1.7520 H         1 <0>         0.0743
     74 H31        -2.0997    4.5809   -0.1994 H         1 <0>         0.0662
     75 H32        -1.2190    4.5954   -1.7340 H         1 <0>         0.0622
     76 H33         1.7614    0.6251   -3.0928 H         1 <0>         0.0321
     77 H34         1.8289   -0.7905   -2.0281 H         1 <0>         0.0204
     78 H35        -2.3644   -1.1272    1.4485 H         1 <0>         0.0749
     79 H36        -3.0804   -3.7010   -2.0039 H         1 <0>         0.0719
     80 H37        -5.0090   -1.5561    4.1946 H         1 <0>         0.0609
     81 H38        -0.3978    0.3245   -1.8868 H         1 <0>         0.1063
     82 H39         1.9287    6.2742    1.1048 H         1 <0>         0.4792
     83 H40         1.3225    7.8557    0.7245 H         1 <0>         0.4819
     84 H41        -1.6601    6.7429   -1.0146 H         1 <0>         0.4802
     85 H42        -0.7481    8.1323   -0.4992 H         1 <0>         0.4826
     86 H43         0.8216    0.7626    0.7549 H         1 <0>         0.3101
     87 H44        -2.4970   -3.5171   -0.0370 H         1 <0>         0.3087
     88 H45         0.6822    4.3187    0.3968 H         1 <0>         0.4846
     89 H46        -6.5600   -8.4417   -0.0547 H         1 <0>         0.4194
     90 H47         1.8515   -6.8926    0.0654 H         1 <0>         0.4036
     91 H48         2.9636    1.7601   -1.6856 H         1 <0>         0.4114
     92 H49        -3.6213   -2.0752   -3.9308 H         1 <0>         0.3944
@<TRIPOS>BOND
     1    1    3 ar
     2    1    5 ar
     3    2    4 ar
     4    2    5 ar
     5    3    6 ar
     6    4    6 ar
     7    5   21 1
     8    6   40 1
     9    7   15 1
    10    7   34 am
    11    7   37 2
    12    8   27 1
    13    8   31 am
    14    8   38 2
    15    9   28 1
    16    9   35 am
    17    9   39 2
    18   10   32 1
    19   10   33 1
    20   10   36 1
    21   11   12 1
    22   11   16 1
    23   12   18 1
    24   13   15 1
    25   13   16 1
    26   14   17 1
    27   14   18 1
    28   15   31 1
    29   16   17 1
    30   17   31 1
    31   18   41 1
    32   19   29 1
    33   20   29 1
    34   21   28 1
    35   22   23 1
    36   22   25 1
    37   23   30 1
    38   24   27 1
    39   24   29 1
    40   25   36 1
    41   26   30 1
    42   26   42 1
    43   27   35 1
    44   28   43 1
    45   30   34 1
    46    1   44 1
    47    2   45 1
    48    3   46 1
    49    4   47 1
    50   11   48 1
    51   11   49 1
    52   12   50 1
    53   12   51 1
    54   13   52 1
    55   13   53 1
    56   14   54 1
    57   14   55 1
    58   15   56 1
    59   16   57 1
    60   17   58 1
    61   18   59 1
    62   19   60 1
    63   19   61 1
    64   19   62 1
    65   20   63 1
    66   20   64 1
    67   20   65 1
    68   21   66 1
    69   21   67 1
    70   22   68 1
    71   22   69 1
    72   23   70 1
    73   23   71 1
    74   24   72 1
    75   24   73 1
    76   25   74 1
    77   25   75 1
    78   26   76 1
    79   26   77 1
    80   27   78 1
    81   28   79 1
    82   29   80 1
    83   30   81 1
    84   32   82 1
    85   32   83 1
    86   33   84 1
    87   33   85 1
    88   34   86 1
    89   35   87 1
    90   36   88 1
    91   40   89 1
    92   41   90 1
    93   42   91 1
    94   43   92 1
@<TRIPOS>MOLECULE
1a2c_ligand_246
   92    94     0     0     0
SMALL
USER_CHARGES

mmff94s_NoEstat = 123.32
@<TRIPOS>ATOM
      1 C1         -4.7608   -5.1990   -4.1804 C.ar      1 <0>        -0.0708
      2 C2         -2.8526   -5.9340   -2.8936 C.ar      1 <0>        -0.0872
      3 C3         -4.4187   -6.0908   -5.1970 C.ar      1 <0>        -0.2241
      4 C4         -2.5105   -6.8257   -3.9101 C.ar      1 <0>        -0.1600
      5 C5         -3.9732   -5.1326   -3.0424 C.ar      1 <0>        -0.1356
      6 C6         -3.2935   -6.9042   -5.0619 C.ar      1 <0>         0.1290
      7 C7         -0.0512   -1.0561    0.2993 C.2       1 <0>         0.6664
      8 C8         -1.8469   -3.0457    2.1630 C.2       1 <0>         0.6651
      9 C9         -3.6974   -2.0123   -0.8263 C.2       1 <0>         0.6454
     10 C10        -0.0505    5.2362    1.3200 C.cat     1 <0>         0.6349
     11 C11         2.5186   -3.1911    0.6823 C.3       1 <0>        -0.0642
     12 C12         2.4580   -4.6414    0.2376 C.3       1 <0>        -0.0747
     13 C13         1.4874   -1.4827    2.2418 C.3       1 <0>        -0.0873
     14 C14         0.4946   -5.0934    1.7133 C.3       1 <0>        -0.1371
     15 C15         0.0412   -1.4176    1.7503 C.3       1 <0>         0.0360
     16 C16         1.8865   -2.9529    2.0632 C.3       1 <0>        -0.0720
     17 C17         0.5665   -3.7001    2.3454 C.3       1 <0>         0.1201
     18 C18         1.0248   -5.1525    0.2868 C.3       1 <0>         0.1453
     19 C19        -3.4345   -0.1597    3.7904 C.3       1 <0>        -0.0968
     20 C20        -3.1391   -2.5257    4.5483 C.3       1 <0>        -0.0986
     21 C21        -4.3440   -4.1677   -1.9416 C.3       1 <0>        -0.0191
     22 C22        -1.0374    2.7415   -0.6235 C.3       1 <0>        -0.1009
     23 C23         0.2513    2.2726   -1.3090 C.3       1 <0>        -0.0942
     24 C24        -4.1436   -2.0954    2.2850 C.3       1 <0>        -0.0988
     25 C25        -1.1758    4.2607   -0.6924 C.3       1 <0>         0.1966
     26 C26         1.7383    0.3016   -2.0469 C.3       1 <0>         0.1128
     27 C27        -2.8325   -2.1090    1.5076 C.3       1 <0>         0.0786
     28 C28        -3.6869   -2.7967   -2.1325 C.3       1 <0>         0.0744
     29 C29        -4.0154   -1.5731    3.7302 C.3       1 <0>        -0.0678
     30 C30         0.4555    0.7445   -1.3388 C.3       1 <0>         0.1065
     31 N1         -0.4979   -2.7598    1.9615 N.am      1 <0>        -0.4315
     32 N2          1.0581    5.8390    1.9054 N.pl3     1 <0>        -0.8671
     33 N3         -1.1718    4.9761    2.1004 N.pl3     1 <0>        -0.8581
     34 N4          0.4455    0.1980   -0.0008 N.am      1 <0>        -0.5687
     35 N5         -2.9650   -2.6361    0.1813 N.am      1 <0>        -0.5746
     36 N6         -0.0506    4.8893   -0.0421 N.pl3     1 <0>        -0.7533
     37 O1         -0.5362   -1.8555   -0.4928 O.2       1 <0>        -0.5843
     38 O2         -2.2659   -3.9924    2.8322 O.2       1 <0>        -0.6812
     39 O3         -4.3065   -0.9527   -0.6974 O.2       1 <0>        -0.5788
     40 O4         -2.9606   -7.7755   -6.0531 O.3       1 <0>        -0.4938
     41 O5          0.9879   -6.5072   -0.1510 O.3       1 <0>        -0.6030
     42 O6          2.8703    0.8436   -1.3793 O.3       1 <0>        -0.5860
     43 O7         -4.4245   -2.0617   -3.0984 O.3       1 <0>        -0.6021
     44 H1         -5.6389   -4.5694   -4.2948 H         1 <0>         0.1412
     45 H2         -2.2369   -5.8798   -1.9996 H         1 <0>         0.1451
     46 H3         -5.0326   -6.1474   -6.0915 H         1 <0>         0.1336
     47 H4         -1.6332   -7.4575   -3.7986 H         1 <0>         0.1567
     48 H5          3.5627   -2.8549    0.7003 H         1 <0>         0.0649
     49 H6          2.0259   -2.5829   -0.0837 H         1 <0>         0.0476
     50 H7          2.8567   -4.7427   -0.7790 H         1 <0>         0.0641
     51 H8          3.1032   -5.2618    0.8729 H         1 <0>         0.0484
     52 H9          2.1569   -0.7868    1.7257 H         1 <0>         0.0596
     53 H10         1.5124   -1.2395    3.3116 H         1 <0>         0.0757
     54 H11         1.0921   -5.7802    2.3299 H         1 <0>         0.0782
     55 H12        -0.5175   -5.5090    1.7393 H         1 <0>         0.0812
     56 H13        -0.5378   -0.6778    2.3126 H         1 <0>         0.0731
     57 H14         2.6304   -3.2407    2.8169 H         1 <0>         0.0511
     58 H15         0.4523   -3.8218    3.4319 H         1 <0>         0.0753
     59 H16         0.3841   -4.5700   -0.3844 H         1 <0>         0.0427
     60 H17        -3.2863    0.1550    4.8292 H         1 <0>         0.0450
     61 H18        -4.1066    0.5680    3.3260 H         1 <0>         0.0406
     62 H19        -2.4667   -0.1061    3.2804 H         1 <0>         0.0274
     63 H20        -2.1236   -2.5806    4.1412 H         1 <0>         0.0476
     64 H21        -3.0691   -2.1929    5.5894 H         1 <0>         0.0170
     65 H22        -3.5594   -3.5370    4.5502 H         1 <0>         0.0477
     66 H23        -4.0491   -4.5950   -0.9738 H         1 <0>         0.0814
     67 H24        -5.4376   -4.0834   -1.9105 H         1 <0>         0.0685
     68 H25        -1.9092    2.2808   -1.1025 H         1 <0>         0.1016
     69 H26        -1.0467    2.4234    0.4259 H         1 <0>         0.0660
     70 H27         1.1110    2.7323   -0.8028 H         1 <0>         0.0512
     71 H28         0.2685    2.6560   -2.3373 H         1 <0>         0.0454
     72 H29        -4.5642   -3.1100    2.3009 H         1 <0>         0.0575
     73 H30        -4.8775   -1.4748    1.7520 H         1 <0>         0.0743
     74 H31        -2.0997    4.5809   -0.1994 H         1 <0>         0.0662
     75 H32        -1.2190    4.5954   -1.7340 H         1 <0>         0.0622
     76 H33         1.7614    0.6251   -3.0928 H         1 <0>         0.0321
     77 H34         1.8289   -0.7905   -2.0281 H         1 <0>         0.0204
     78 H35        -2.3644   -1.1272    1.4485 H         1 <0>         0.0749
     79 H36        -2.6537   -2.8903   -2.4873 H         1 <0>         0.0719
     80 H37        -5.0090   -1.5561    4.1946 H         1 <0>         0.0609
     81 H38        -0.3978    0.3245   -1.8868 H         1 <0>         0.1063
     82 H39         1.9000    6.0462    1.3749 H         1 <0>         0.4792
     83 H40         1.0569    6.0890    2.8916 H         1 <0>         0.4819
     84 H41        -1.9992    4.5366    1.7045 H         1 <0>         0.4802
     85 H42        -1.1942    5.2197    3.0877 H         1 <0>         0.4826
     86 H43         0.8216    0.7626    0.7549 H         1 <0>         0.3101
     87 H44        -2.4970   -3.5171   -0.0370 H         1 <0>         0.3087
     88 H45         0.8032    5.1039   -0.5714 H         1 <0>         0.4846
     89 H46        -3.2124   -7.4135   -6.9176 H         1 <0>         0.4194
     90 H47         1.8515   -6.8926    0.0654 H         1 <0>         0.4036
     91 H48         2.9636    1.7601   -1.6856 H         1 <0>         0.4114
     92 H49        -4.9875   -2.6994   -3.5670 H         1 <0>         0.3944
@<TRIPOS>BOND
     1    1    3 ar
     2    1    5 ar
     3    2    4 ar
     4    2    5 ar
     5    3    6 ar
     6    4    6 ar
     7    5   21 1
     8    6   40 1
     9    7   15 1
    10    7   34 am
    11    7   37 2
    12    8   27 1
    13    8   31 am
    14    8   38 2
    15    9   28 1
    16    9   35 am
    17    9   39 2
    18   10   32 1
    19   10   33 1
    20   10   36 1
    21   11   12 1
    22   11   16 1
    23   12   18 1
    24   13   15 1
    25   13   16 1
    26   14   17 1
    27   14   18 1
    28   15   31 1
    29   16   17 1
    30   17   31 1
    31   18   41 1
    32   19   29 1
    33   20   29 1
    34   21   28 1
    35   22   23 1
    36   22   25 1
    37   23   30 1
    38   24   27 1
    39   24   29 1
    40   25   36 1
    41   26   30 1
    42   26   42 1
    43   27   35 1
    44   28   43 1
    45   30   34 1
    46    1   44 1
    47    2   45 1
    48    3   46 1
    49    4   47 1
    50   11   48 1
    51   11   49 1
    52   12   50 1
    53   12   51 1
    54   13   52 1
    55   13   53 1
    56   14   54 1
    57   14   55 1
    58   15   56 1
    59   16   57 1
    60   17   58 1
    61   18   59 1
    62   19   60 1
    63   19   61 1
    64   19   62 1
    65   20   63 1
    66   20   64 1
    67   20   65 1
    68   21   66 1
    69   21   67 1
    70   22   68 1
    71   22   69 1
    72   23   70 1
    73   23   71 1
    74   24   72 1
    75   24   73 1
    76   25   74 1
    77   25   75 1
    78   26   76 1
    79   26   77 1
    80   27   78 1
    81   28   79 1
    82   29   80 1
    83   30   81 1
    84   32   82 1
    85   32   83 1
    86   33   84 1
    87   33   85 1
    88   34   86 1
    89   35   87 1
    90   36   88 1
    91   40   89 1
    92   41   90 1
    93   42   91 1
    94   43   92 1
@<TRIPOS>MOLECULE
1a2c_ligand_247
   92    94     0     0     0
SMALL
USER_CHARGES

mmff94s_NoEstat = 123.34
@<TRIPOS>ATOM
      1 C1         -8.8318   -2.8342   -0.6894 C.ar      1 <0>        -0.0708
      2 C2         -8.3397   -3.5408    1.5679 C.ar      1 <0>        -0.0872
      3 C3        -10.0550   -3.5020   -0.6317 C.ar      1 <0>        -0.2241
      4 C4         -9.5629   -4.2086    1.6256 C.ar      1 <0>        -0.1600
      5 C5         -7.9905   -2.8625    0.4112 C.ar      1 <0>        -0.1356
      6 C6        -10.4206   -4.1893    0.5258 C.ar      1 <0>         0.1290
      7 C7         -0.0512   -1.0561    0.2993 C.2       1 <0>         0.6664
      8 C8         -1.8469   -3.0457    2.1630 C.2       1 <0>         0.6651
      9 C9         -4.1811   -2.4610    0.1870 C.2       1 <0>         0.6454
     10 C10        -4.2718    2.4558    0.1525 C.cat     1 <0>         0.6349
     11 C11         2.5186   -3.1911    0.6823 C.3       1 <0>        -0.0642
     12 C12         2.4580   -4.6414    0.2376 C.3       1 <0>        -0.0747
     13 C13         1.4874   -1.4827    2.2418 C.3       1 <0>        -0.0873
     14 C14         0.4946   -5.0934    1.7133 C.3       1 <0>        -0.1371
     15 C15         0.0412   -1.4176    1.7503 C.3       1 <0>         0.0360
     16 C16         1.8865   -2.9529    2.0632 C.3       1 <0>        -0.0720
     17 C17         0.5665   -3.7001    2.3454 C.3       1 <0>         0.1201
     18 C18         1.0248   -5.1525    0.2868 C.3       1 <0>         0.1453
     19 C19        -5.3726   -0.5418    3.1302 C.3       1 <0>        -0.0968
     20 C20        -3.4397    1.0389    2.9738 C.3       1 <0>        -0.0986
     21 C21        -6.6666   -2.1390    0.3490 C.3       1 <0>        -0.0191
     22 C22        -2.1258    0.5661   -1.5204 C.3       1 <0>        -0.1009
     23 C23        -0.8794    1.4488   -1.6540 C.3       1 <0>        -0.0942
     24 C24        -2.9973   -1.3585    3.5851 C.3       1 <0>        -0.0988
     25 C25        -3.3881    1.3349   -1.9043 C.3       1 <0>         0.1966
     26 C26         1.6856    1.6412   -1.5001 C.3       1 <0>         0.1128
     27 C27        -2.7865   -1.8644    2.1628 C.3       1 <0>         0.0786
     28 C28        -5.5432   -3.0384   -0.1771 C.3       1 <0>         0.0744
     29 C29        -3.9969   -0.1898    3.6979 C.3       1 <0>        -0.0678
     30 C30         0.4555    0.7445   -1.3388 C.3       1 <0>         0.1065
     31 N1         -0.4979   -2.7598    1.9615 N.am      1 <0>        -0.4315
     32 N2         -4.3936    3.5915    0.9464 N.pl3     1 <0>        -0.8671
     33 N3         -4.8824    1.2749    0.5605 N.pl3     1 <0>        -0.8581
     34 N4          0.4455    0.1980   -0.0008 N.am      1 <0>        -0.5687
     35 N5         -3.9799   -2.3853    1.5634 N.am      1 <0>        -0.5746
     36 N6         -3.5437    2.4877   -1.0494 N.pl3     1 <0>        -0.7533
     37 O1         -0.5362   -1.8555   -0.4928 O.2       1 <0>        -0.5843
     38 O2         -2.2998   -4.1783    2.3409 O.2       1 <0>        -0.6812
     39 O3         -3.3708   -2.0954   -0.6616 O.2       1 <0>        -0.5788
     40 O4        -11.6150   -4.8396    0.5826 O.3       1 <0>        -0.4938
     41 O5          0.9879   -6.5072   -0.1510 O.3       1 <0>        -0.6030
     42 O6          2.8639    0.9021   -1.2063 O.3       1 <0>        -0.5860
     43 O7         -5.6325   -3.1081   -1.5930 O.3       1 <0>        -0.6021
     44 H1         -8.5556   -2.3017   -1.5954 H         1 <0>         0.1412
     45 H2         -7.6778   -3.5611    2.4299 H         1 <0>         0.1451
     46 H3        -10.7188   -3.4831   -1.4916 H         1 <0>         0.1336
     47 H4         -9.8425   -4.7415    2.5306 H         1 <0>         0.1567
     48 H5          3.5627   -2.8549    0.7003 H         1 <0>         0.0649
     49 H6          2.0259   -2.5829   -0.0837 H         1 <0>         0.0476
     50 H7          2.8567   -4.7427   -0.7790 H         1 <0>         0.0641
     51 H8          3.1032   -5.2618    0.8729 H         1 <0>         0.0484
     52 H9          2.1569   -0.7868    1.7257 H         1 <0>         0.0596
     53 H10         1.5124   -1.2395    3.3116 H         1 <0>         0.0757
     54 H11         1.0921   -5.7802    2.3299 H         1 <0>         0.0782
     55 H12        -0.5175   -5.5090    1.7393 H         1 <0>         0.0812
     56 H13        -0.5378   -0.6778    2.3126 H         1 <0>         0.0731
     57 H14         2.6304   -3.2407    2.8169 H         1 <0>         0.0511
     58 H15         0.4523   -3.8218    3.4319 H         1 <0>         0.0753
     59 H16         0.3841   -4.5700   -0.3844 H         1 <0>         0.0427
     60 H17        -6.0375    0.3284    3.1563 H         1 <0>         0.0450
     61 H18        -5.8542   -1.3328    3.7128 H         1 <0>         0.0406
     62 H19        -5.2988   -0.8789    2.0908 H         1 <0>         0.0274
     63 H20        -3.3028    0.8425    1.9049 H         1 <0>         0.0476
     64 H21        -4.1178    1.8926    3.0773 H         1 <0>         0.0170
     65 H22        -2.4708    1.3315    3.3922 H         1 <0>         0.0477
     66 H23        -6.4126   -1.7663    1.3504 H         1 <0>         0.0814
     67 H24        -6.7895   -1.2479   -0.2794 H         1 <0>         0.0685
     68 H25        -2.0346   -0.3163   -2.1645 H         1 <0>         0.1016
     69 H26        -2.2229    0.1995   -0.4914 H         1 <0>         0.0660
     70 H27        -0.9849    2.3163   -0.9885 H         1 <0>         0.0512
     71 H28        -0.8376    1.8555   -2.6726 H         1 <0>         0.0454
     72 H29        -2.0302   -1.0518    4.0061 H         1 <0>         0.0575
     73 H30        -3.3514   -2.1846    4.2177 H         1 <0>         0.0743
     74 H31        -4.2695    0.6926   -1.8042 H         1 <0>         0.0662
     75 H32        -3.3332    1.6675   -2.9460 H         1 <0>         0.0622
     76 H33         1.6463    2.5133   -0.8391 H         1 <0>         0.0321
     77 H34         1.7645    2.0016   -2.5321 H         1 <0>         0.0204
     78 H35        -2.3647   -1.1082    1.5019 H         1 <0>         0.0749
     79 H36        -5.6207   -4.0565    0.2227 H         1 <0>         0.0719
     80 H37        -4.1195    0.0762    4.7551 H         1 <0>         0.0609
     81 H38         0.5463   -0.0881   -2.0483 H         1 <0>         0.1063
     82 H39        -3.9630    4.4757    0.6893 H         1 <0>         0.4792
     83 H40        -4.9204    3.5668    1.8164 H         1 <0>         0.4819
     84 H41        -4.8134    0.4262    0.0042 H         1 <0>         0.4802
     85 H42        -5.4152    1.2292    1.4258 H         1 <0>         0.4826
     86 H43         0.8216    0.7626    0.7549 H         1 <0>         0.3101
     87 H44        -4.7231   -2.7191    2.1790 H         1 <0>         0.3087
     88 H45        -3.1135    3.3854   -1.3029 H         1 <0>         0.4846
     89 H46       -11.8556   -5.1782   -0.2945 H         1 <0>         0.4194
     90 H47         1.8515   -6.8926    0.0654 H         1 <0>         0.4036
     91 H48         2.9483    0.8828   -0.2393 H         1 <0>         0.4114
     92 H49        -6.5163   -2.7865   -1.8350 H         1 <0>         0.3944
@<TRIPOS>BOND
     1    1    3 ar
     2    1    5 ar
     3    2    4 ar
     4    2    5 ar
     5    3    6 ar
     6    4    6 ar
     7    5   21 1
     8    6   40 1
     9    7   15 1
    10    7   34 am
    11    7   37 2
    12    8   27 1
    13    8   31 am
    14    8   38 2
    15    9   28 1
    16    9   35 am
    17    9   39 2
    18   10   32 1
    19   10   33 1
    20   10   36 1
    21   11   12 1
    22   11   16 1
    23   12   18 1
    24   13   15 1
    25   13   16 1
    26   14   17 1
    27   14   18 1
    28   15   31 1
    29   16   17 1
    30   17   31 1
    31   18   41 1
    32   19   29 1
    33   20   29 1
    34   21   28 1
    35   22   23 1
    36   22   25 1
    37   23   30 1
    38   24   27 1
    39   24   29 1
    40   25   36 1
    41   26   30 1
    42   26   42 1
    43   27   35 1
    44   28   43 1
    45   30   34 1
    46    1   44 1
    47    2   45 1
    48    3   46 1
    49    4   47 1
    50   11   48 1
    51   11   49 1
    52   12   50 1
    53   12   51 1
    54   13   52 1
    55   13   53 1
    56   14   54 1
    57   14   55 1
    58   15   56 1
    59   16   57 1
    60   17   58 1
    61   18   59 1
    62   19   60 1
    63   19   61 1
    64   19   62 1
    65   20   63 1
    66   20   64 1
    67   20   65 1
    68   21   66 1
    69   21   67 1
    70   22   68 1
    71   22   69 1
    72   23   70 1
    73   23   71 1
    74   24   72 1
    75   24   73 1
    76   25   74 1
    77   25   75 1
    78   26   76 1
    79   26   77 1
    80   27   78 1
    81   28   79 1
    82   29   80 1
    83   30   81 1
    84   32   82 1
    85   32   83 1
    86   33   84 1
    87   33   85 1
    88   34   86 1
    89   35   87 1
    90   36   88 1
    91   40   89 1
    92   41   90 1
    93   42   91 1
    94   43   92 1
@<TRIPOS>MOLECULE
1a2c_ligand_248
   92    94     0     0     0
SMALL
USER_CHARGES

mmff94s_NoEstat = 123.44
@<TRIPOS>ATOM
      1 C1         -3.9895   -3.0911   -5.4401 C.ar      1 <0>        -0.0708
      2 C2         -6.0703   -3.5985   -4.3221 C.ar      1 <0>        -0.0872
      3 C3         -4.3556   -3.9225   -6.4986 C.ar      1 <0>        -0.2241
      4 C4         -6.4364   -4.4298   -5.3806 C.ar      1 <0>        -0.1600
      5 C5         -4.8517   -2.9403   -4.3660 C.ar      1 <0>        -0.1356
      6 C6         -5.5790   -4.5918   -6.4689 C.ar      1 <0>         0.1290
      7 C7         -0.0512   -1.0561    0.2993 C.2       1 <0>         0.6664
      8 C8         -1.8469   -3.0457    2.1630 C.2       1 <0>         0.6651
      9 C9         -3.6974   -2.0123   -0.8263 C.2       1 <0>         0.6454
     10 C10        -3.3611    4.6327   -3.0349 C.cat     1 <0>         0.6349
     11 C11         2.5186   -3.1911    0.6823 C.3       1 <0>        -0.0642
     12 C12         2.4580   -4.6414    0.2376 C.3       1 <0>        -0.0747
     13 C13         1.4874   -1.4827    2.2418 C.3       1 <0>        -0.0873
     14 C14         0.4946   -5.0934    1.7133 C.3       1 <0>        -0.1371
     15 C15         0.0412   -1.4176    1.7503 C.3       1 <0>         0.0360
     16 C16         1.8865   -2.9529    2.0632 C.3       1 <0>        -0.0720
     17 C17         0.5665   -3.7001    2.3454 C.3       1 <0>         0.1201
     18 C18         1.0248   -5.1525    0.2868 C.3       1 <0>         0.1453
     19 C19        -3.4345   -0.1597    3.7904 C.3       1 <0>        -0.0968
     20 C20        -3.1391   -2.5257    4.5483 C.3       1 <0>        -0.0986
     21 C21        -4.4557   -2.0397   -3.2204 C.3       1 <0>        -0.0191
     22 C22        -1.8968    1.7896   -1.0188 C.3       1 <0>        -0.1009
     23 C23        -0.4337    2.0012   -1.4250 C.3       1 <0>        -0.0942
     24 C24        -4.1436   -2.0954    2.2850 C.3       1 <0>        -0.0988
     25 C25        -2.7062    3.0733   -1.1890 C.3       1 <0>         0.1966
     26 C26         1.9058    0.9774   -1.7696 C.3       1 <0>         0.1128
     27 C27        -2.8325   -2.1090    1.5076 C.3       1 <0>         0.0786
     28 C28        -3.6869   -2.7967   -2.1325 C.3       1 <0>         0.0744
     29 C29        -4.0154   -1.5731    3.7302 C.3       1 <0>        -0.0678
     30 C30         0.4555    0.7445   -1.3388 C.3       1 <0>         0.1065
     31 N1         -0.4979   -2.7598    1.9615 N.am      1 <0>        -0.4315
     32 N2         -3.3082    5.0008   -4.3753 N.pl3     1 <0>        -0.8671
     33 N3         -4.0986    5.4088   -2.1474 N.pl3     1 <0>        -0.8581
     34 N4          0.4455    0.1980   -0.0008 N.am      1 <0>        -0.5687
     35 N5         -2.9650   -2.6361    0.1813 N.am      1 <0>        -0.5746
     36 N6         -2.6823    3.4930   -2.5701 N.pl3     1 <0>        -0.7533
     37 O1         -0.5362   -1.8555   -0.4928 O.2       1 <0>        -0.5843
     38 O2         -2.2659   -3.9924    2.8322 O.2       1 <0>        -0.6812
     39 O3         -4.3065   -0.9527   -0.6974 O.2       1 <0>        -0.5788
     40 O4         -5.9370   -5.4018   -7.5026 O.3       1 <0>        -0.4938
     41 O5          0.9879   -6.5072   -0.1510 O.3       1 <0>        -0.6030
     42 O6          2.5087    1.9525   -0.9290 O.3       1 <0>        -0.5860
     43 O7         -2.3371   -2.9541   -2.5456 O.3       1 <0>        -0.6021
     44 H1         -3.0344   -2.5740   -5.4721 H         1 <0>         0.1412
     45 H2         -6.7448   -3.4780   -3.4783 H         1 <0>         0.1451
     46 H3         -3.6836   -4.0444   -7.3435 H         1 <0>         0.1336
     47 H4         -7.3913   -4.9479   -5.3521 H         1 <0>         0.1567
     48 H5          3.5627   -2.8549    0.7003 H         1 <0>         0.0649
     49 H6          2.0259   -2.5829   -0.0837 H         1 <0>         0.0476
     50 H7          2.8567   -4.7427   -0.7790 H         1 <0>         0.0641
     51 H8          3.1032   -5.2618    0.8729 H         1 <0>         0.0484
     52 H9          2.1569   -0.7868    1.7257 H         1 <0>         0.0596
     53 H10         1.5124   -1.2395    3.3116 H         1 <0>         0.0757
     54 H11         1.0921   -5.7802    2.3299 H         1 <0>         0.0782
     55 H12        -0.5175   -5.5090    1.7393 H         1 <0>         0.0812
     56 H13        -0.5378   -0.6778    2.3126 H         1 <0>         0.0731
     57 H14         2.6304   -3.2407    2.8169 H         1 <0>         0.0511
     58 H15         0.4523   -3.8218    3.4319 H         1 <0>         0.0753
     59 H16         0.3841   -4.5700   -0.3844 H         1 <0>         0.0427
     60 H17        -3.2863    0.1550    4.8292 H         1 <0>         0.0450
     61 H18        -4.1066    0.5680    3.3260 H         1 <0>         0.0406
     62 H19        -2.4667   -0.1061    3.2804 H         1 <0>         0.0274
     63 H20        -2.1236   -2.5806    4.1412 H         1 <0>         0.0476
     64 H21        -3.0691   -2.1929    5.5894 H         1 <0>         0.0170
     65 H22        -3.5594   -3.5370    4.5502 H         1 <0>         0.0477
     66 H23        -5.3582   -1.5816   -2.7940 H         1 <0>         0.0814
     67 H24        -3.8610   -1.2102   -3.6232 H         1 <0>         0.0685
     68 H25        -2.3478    0.9988   -1.6296 H         1 <0>         0.1016
     69 H26        -1.9571    1.4582    0.0248 H         1 <0>         0.0660
     70 H27         0.0021    2.7844   -0.7898 H         1 <0>         0.0512
     71 H28        -0.4008    2.3932   -2.4497 H         1 <0>         0.0454
     72 H29        -4.5642   -3.1100    2.3009 H         1 <0>         0.0575
     73 H30        -4.8775   -1.4748    1.7520 H         1 <0>         0.0743
     74 H31        -2.2897    3.8707   -0.5646 H         1 <0>         0.0662
     75 H32        -3.7451    2.9157   -0.8815 H         1 <0>         0.0622
     76 H33         1.9749    1.3199   -2.8074 H         1 <0>         0.0321
     77 H34         2.4858    0.0519   -1.6791 H         1 <0>         0.0204
     78 H35        -2.3644   -1.1272    1.4485 H         1 <0>         0.0749
     79 H36        -4.1111   -3.7925   -1.9573 H         1 <0>         0.0719
     80 H37        -5.0090   -1.5561    4.1946 H         1 <0>         0.0609
     81 H38         0.0149    0.0012   -2.0158 H         1 <0>         0.1063
     82 H39        -2.7804    4.4652   -5.0593 H         1 <0>         0.4792
     83 H40        -3.7995    5.8263   -4.7102 H         1 <0>         0.4819
     84 H41        -4.1585    5.1685   -1.1609 H         1 <0>         0.4802
     85 H42        -4.5986    6.2369   -2.4619 H         1 <0>         0.4826
     86 H43         0.8216    0.7626    0.7549 H         1 <0>         0.3101
     87 H44        -2.4970   -3.5171   -0.0370 H         1 <0>         0.3087
     88 H45        -2.1531    2.9563   -3.2681 H         1 <0>         0.4846
     89 H46        -5.1512   -5.8177   -7.8916 H         1 <0>         0.4194
     90 H47         1.8515   -6.8926    0.0654 H         1 <0>         0.4036
     91 H48         2.2238    2.8203   -1.2580 H         1 <0>         0.4114
     92 H49        -2.3126   -2.7752   -3.4998 H         1 <0>         0.3944
@<TRIPOS>BOND
     1    1    3 ar
     2    1    5 ar
     3    2    4 ar
     4    2    5 ar
     5    3    6 ar
     6    4    6 ar
     7    5   21 1
     8    6   40 1
     9    7   15 1
    10    7   34 am
    11    7   37 2
    12    8   27 1
    13    8   31 am
    14    8   38 2
    15    9   28 1
    16    9   35 am
    17    9   39 2
    18   10   32 1
    19   10   33 1
    20   10   36 1
    21   11   12 1
    22   11   16 1
    23   12   18 1
    24   13   15 1
    25   13   16 1
    26   14   17 1
    27   14   18 1
    28   15   31 1
    29   16   17 1
    30   17   31 1
    31   18   41 1
    32   19   29 1
    33   20   29 1
    34   21   28 1
    35   22   23 1
    36   22   25 1
    37   23   30 1
    38   24   27 1
    39   24   29 1
    40   25   36 1
    41   26   30 1
    42   26   42 1
    43   27   35 1
    44   28   43 1
    45   30   34 1
    46    1   44 1
    47    2   45 1
    48    3   46 1
    49    4   47 1
    50   11   48 1
    51   11   49 1
    52   12   50 1
    53   12   51 1
    54   13   52 1
    55   13   53 1
    56   14   54 1
    57   14   55 1
    58   15   56 1
    59   16   57 1
    60   17   58 1
    61   18   59 1
    62   19   60 1
    63   19   61 1
    64   19   62 1
    65   20   63 1
    66   20   64 1
    67   20   65 1
    68   21   66 1
    69   21   67 1
    70   22   68 1
    71   22   69 1
    72   23   70 1
    73   23   71 1
    74   24   72 1
    75   24   73 1
    76   25   74 1
    77   25   75 1
    78   26   76 1
    79   26   77 1
    80   27   78 1
    81   28   79 1
    82   29   80 1
    83   30   81 1
    84   32   82 1
    85   32   83 1
    86   33   84 1
    87   33   85 1
    88   34   86 1
    89   35   87 1
    90   36   88 1
    91   40   89 1
    92   41   90 1
    93   42   91 1
    94   43   92 1
@<TRIPOS>MOLECULE
1a2c_ligand_249
   92    94     0     0     0
SMALL
USER_CHARGES

mmff94s_NoEstat = 123.54
@<TRIPOS>ATOM
      1 C1         -6.0181   -4.0270   -0.0902 C.ar      1 <0>        -0.0708
      2 C2         -6.7982   -3.9708   -2.3761 C.ar      1 <0>        -0.0872
      3 C3         -7.3335   -3.9199    0.3613 C.ar      1 <0>        -0.2241
      4 C4         -8.1136   -3.8637   -1.9246 C.ar      1 <0>        -0.1600
      5 C5         -5.7681   -4.0510   -1.4528 C.ar      1 <0>        -0.1356
      6 C6         -8.3813   -3.8383   -0.5559 C.ar      1 <0>         0.1290
      7 C7         -0.0512   -1.0561    0.2993 C.2       1 <0>         0.6664
      8 C8         -1.8469   -3.0457    2.1630 C.2       1 <0>         0.6651
      9 C9         -3.6974   -2.0123   -0.8263 C.2       1 <0>         0.6454
     10 C10        -5.0538    3.8595   -0.8167 C.cat     1 <0>         0.6349
     11 C11         2.5186   -3.1911    0.6823 C.3       1 <0>        -0.0642
     12 C12         2.4580   -4.6414    0.2376 C.3       1 <0>        -0.0747
     13 C13         1.4874   -1.4827    2.2418 C.3       1 <0>        -0.0873
     14 C14         0.4946   -5.0934    1.7133 C.3       1 <0>        -0.1371
     15 C15         0.0412   -1.4176    1.7503 C.3       1 <0>         0.0360
     16 C16         1.8865   -2.9529    2.0632 C.3       1 <0>        -0.0720
     17 C17         0.5665   -3.7001    2.3454 C.3       1 <0>         0.1201
     18 C18         1.0248   -5.1525    0.2868 C.3       1 <0>         0.1453
     19 C19        -3.4345   -0.1597    3.7904 C.3       1 <0>        -0.0968
     20 C20        -3.1391   -2.5257    4.5483 C.3       1 <0>        -0.0986
     21 C21        -4.3440   -4.1677   -1.9416 C.3       1 <0>        -0.0191
     22 C22        -1.8968    1.7896   -1.0188 C.3       1 <0>        -0.1009
     23 C23        -0.4337    2.0012   -1.4250 C.3       1 <0>        -0.0942
     24 C24        -4.1436   -2.0954    2.2850 C.3       1 <0>        -0.0988
     25 C25        -2.7062    3.0733   -1.1890 C.3       1 <0>         0.1966
     26 C26         1.9058    0.9774   -1.7696 C.3       1 <0>         0.1128
     27 C27        -2.8325   -2.1090    1.5076 C.3       1 <0>         0.0786
     28 C28        -3.6869   -2.7967   -2.1325 C.3       1 <0>         0.0744
     29 C29        -4.0154   -1.5731    3.7302 C.3       1 <0>        -0.0678
     30 C30         0.4555    0.7445   -1.3388 C.3       1 <0>         0.1065
     31 N1         -0.4979   -2.7598    1.9615 N.am      1 <0>        -0.4315
     32 N2         -6.3630    3.5983   -0.4259 N.pl3     1 <0>        -0.8671
     33 N3         -4.7148    5.1409   -1.2376 N.pl3     1 <0>        -0.8581
     34 N4          0.4455    0.1980   -0.0008 N.am      1 <0>        -0.5687
     35 N5         -2.9650   -2.6361    0.1813 N.am      1 <0>        -0.5746
     36 N6         -4.0759    2.8502   -0.7911 N.pl3     1 <0>        -0.7533
     37 O1         -0.5362   -1.8555   -0.4928 O.2       1 <0>        -0.5843
     38 O2         -2.2659   -3.9924    2.8322 O.2       1 <0>        -0.6812
     39 O3         -4.3065   -0.9527   -0.6974 O.2       1 <0>        -0.5788
     40 O4         -9.6650   -3.7354   -0.1152 O.3       1 <0>        -0.4938
     41 O5          0.9879   -6.5072   -0.1510 O.3       1 <0>        -0.6030
     42 O6          2.6391   -0.2366   -1.6731 O.3       1 <0>        -0.5860
     43 O7         -4.4245   -2.0617   -3.0984 O.3       1 <0>        -0.6021
     44 H1         -5.2085   -4.0899    0.6318 H         1 <0>         0.1412
     45 H2         -6.5990   -3.9902   -3.4444 H         1 <0>         0.1451
     46 H3         -7.5355   -3.9007    1.4286 H         1 <0>         0.1336
     47 H4         -8.9257   -3.8014   -2.6441 H         1 <0>         0.1567
     48 H5          3.5627   -2.8549    0.7003 H         1 <0>         0.0649
     49 H6          2.0259   -2.5829   -0.0837 H         1 <0>         0.0476
     50 H7          2.8567   -4.7427   -0.7790 H         1 <0>         0.0641
     51 H8          3.1032   -5.2618    0.8729 H         1 <0>         0.0484
     52 H9          2.1569   -0.7868    1.7257 H         1 <0>         0.0596
     53 H10         1.5124   -1.2395    3.3116 H         1 <0>         0.0757
     54 H11         1.0921   -5.7802    2.3299 H         1 <0>         0.0782
     55 H12        -0.5175   -5.5090    1.7393 H         1 <0>         0.0812
     56 H13        -0.5378   -0.6778    2.3126 H         1 <0>         0.0731
     57 H14         2.6304   -3.2407    2.8169 H         1 <0>         0.0511
     58 H15         0.4523   -3.8218    3.4319 H         1 <0>         0.0753
     59 H16         0.3841   -4.5700   -0.3844 H         1 <0>         0.0427
     60 H17        -3.2863    0.1550    4.8292 H         1 <0>         0.0450
     61 H18        -4.1066    0.5680    3.3260 H         1 <0>         0.0406
     62 H19        -2.4667   -0.1061    3.2804 H         1 <0>         0.0274
     63 H20        -2.1236   -2.5806    4.1412 H         1 <0>         0.0476
     64 H21        -3.0691   -2.1929    5.5894 H         1 <0>         0.0170
     65 H22        -3.5594   -3.5370    4.5502 H         1 <0>         0.0477
     66 H23        -4.3326   -4.7255   -2.8875 H         1 <0>         0.0814
     67 H24        -3.7827   -4.7813   -1.2258 H         1 <0>         0.0685
     68 H25        -2.3478    0.9988   -1.6296 H         1 <0>         0.1016
     69 H26        -1.9571    1.4582    0.0248 H         1 <0>         0.0660
     70 H27         0.0021    2.7844   -0.7898 H         1 <0>         0.0512
     71 H28        -0.4008    2.3932   -2.4497 H         1 <0>         0.0454
     72 H29        -4.5642   -3.1100    2.3009 H         1 <0>         0.0575
     73 H30        -4.8775   -1.4748    1.7520 H         1 <0>         0.0743
     74 H31        -2.6850    3.4001   -2.2340 H         1 <0>         0.0662
     75 H32        -2.2833    3.8776   -0.5783 H         1 <0>         0.0622
     76 H33         2.4001    1.7344   -1.1517 H         1 <0>         0.0321
     77 H34         1.9468    1.3120   -2.8125 H         1 <0>         0.0204
     78 H35        -2.3644   -1.1272    1.4485 H         1 <0>         0.0749
     79 H36        -2.6537   -2.8903   -2.4873 H         1 <0>         0.0719
     80 H37        -5.0090   -1.5561    4.1946 H         1 <0>         0.0609
     81 H38         0.0149    0.0012   -2.0158 H         1 <0>         0.1063
     82 H39        -6.6569    2.6769   -0.1130 H         1 <0>         0.4792
     83 H40        -7.0699    4.3298   -0.4455 H         1 <0>         0.4819
     84 H41        -3.7671    5.3663   -1.5301 H         1 <0>         0.4802
     85 H42        -5.4059    5.8868   -1.2630 H         1 <0>         0.4826
     86 H43         0.8216    0.7626    0.7549 H         1 <0>         0.3101
     87 H44        -2.4970   -3.5171   -0.0370 H         1 <0>         0.3087
     88 H45        -4.3806    1.9226   -0.4717 H         1 <0>         0.4846
     89 H46        -9.6952   -3.2429    0.7204 H         1 <0>         0.4194
     90 H47         1.8515   -6.8926    0.0654 H         1 <0>         0.4036
     91 H48         2.8853   -0.3414   -0.7399 H         1 <0>         0.4114
     92 H49        -4.9875   -2.6994   -3.5670 H         1 <0>         0.3944
@<TRIPOS>BOND
     1    1    3 ar
     2    1    5 ar
     3    2    4 ar
     4    2    5 ar
     5    3    6 ar
     6    4    6 ar
     7    5   21 1
     8    6   40 1
     9    7   15 1
    10    7   34 am
    11    7   37 2
    12    8   27 1
    13    8   31 am
    14    8   38 2
    15    9   28 1
    16    9   35 am
    17    9   39 2
    18   10   32 1
    19   10   33 1
    20   10   36 1
    21   11   12 1
    22   11   16 1
    23   12   18 1
    24   13   15 1
    25   13   16 1
    26   14   17 1
    27   14   18 1
    28   15   31 1
    29   16   17 1
    30   17   31 1
    31   18   41 1
    32   19   29 1
    33   20   29 1
    34   21   28 1
    35   22   23 1
    36   22   25 1
    37   23   30 1
    38   24   27 1
    39   24   29 1
    40   25   36 1
    41   26   30 1
    42   26   42 1
    43   27   35 1
    44   28   43 1
    45   30   34 1
    46    1   44 1
    47    2   45 1
    48    3   46 1
    49    4   47 1
    50   11   48 1
    51   11   49 1
    52   12   50 1
    53   12   51 1
    54   13   52 1
    55   13   53 1
    56   14   54 1
    57   14   55 1
    58   15   56 1
    59   16   57 1
    60   17   58 1
    61   18   59 1
    62   19   60 1
    63   19   61 1
    64   19   62 1
    65   20   63 1
    66   20   64 1
    67   20   65 1
    68   21   66 1
    69   21   67 1
    70   22   68 1
    71   22   69 1
    72   23   70 1
    73   23   71 1
    74   24   72 1
    75   24   73 1
    76   25   74 1
    77   25   75 1
    78   26   76 1
    79   26   77 1
    80   27   78 1
    81   28   79 1
    82   29   80 1
    83   30   81 1
    84   32   82 1
    85   32   83 1
    86   33   84 1
    87   33   85 1
    88   34   86 1
    89   35   87 1
    90   36   88 1
    91   40   89 1
    92   41   90 1
    93   42   91 1
    94   43   92 1
@<TRIPOS>MOLECULE
1a2c_ligand_250
   92    94     0     0     0
SMALL
USER_CHARGES

mmff94s_NoEstat = 123.56
@<TRIPOS>ATOM
      1 C1         -3.9895   -3.0911   -5.4401 C.ar      1 <0>        -0.0708
      2 C2         -6.0703   -3.5985   -4.3221 C.ar      1 <0>        -0.0872
      3 C3         -4.3556   -3.9225   -6.4986 C.ar      1 <0>        -0.2241
      4 C4         -6.4364   -4.4298   -5.3806 C.ar      1 <0>        -0.1600
      5 C5         -4.8517   -2.9403   -4.3660 C.ar      1 <0>        -0.1356
      6 C6         -5.5790   -4.5918   -6.4689 C.ar      1 <0>         0.1290
      7 C7         -0.0512   -1.0561    0.2993 C.2       1 <0>         0.6664
      8 C8         -1.8469   -3.0457    2.1630 C.2       1 <0>         0.6651
      9 C9         -3.6974   -2.0123   -0.8263 C.2       1 <0>         0.6454
     10 C10        -4.7581    2.2187   -1.0418 C.cat     1 <0>         0.6349
     11 C11         2.5186   -3.1911    0.6823 C.3       1 <0>        -0.0642
     12 C12         2.4580   -4.6414    0.2376 C.3       1 <0>        -0.0747
     13 C13         1.4874   -1.4827    2.2418 C.3       1 <0>        -0.0873
     14 C14         0.4946   -5.0934    1.7133 C.3       1 <0>        -0.1371
     15 C15         0.0412   -1.4176    1.7503 C.3       1 <0>         0.0360
     16 C16         1.8865   -2.9529    2.0632 C.3       1 <0>        -0.0720
     17 C17         0.5665   -3.7001    2.3454 C.3       1 <0>         0.1201
     18 C18         1.0248   -5.1525    0.2868 C.3       1 <0>         0.1453
     19 C19        -3.4345   -0.1597    3.7904 C.3       1 <0>        -0.0968
     20 C20        -3.1391   -2.5257    4.5483 C.3       1 <0>        -0.0986
     21 C21        -4.4557   -2.0397   -3.2204 C.3       1 <0>        -0.0191
     22 C22        -1.0374    2.7415   -0.6235 C.3       1 <0>        -0.1009
     23 C23         0.2513    2.2726   -1.3090 C.3       1 <0>        -0.0942
     24 C24        -4.1436   -2.0954    2.2850 C.3       1 <0>        -0.0988
     25 C25        -2.2684    2.1304   -1.2894 C.3       1 <0>         0.1966
     26 C26         1.7383    0.3016   -2.0469 C.3       1 <0>         0.1128
     27 C27        -2.8325   -2.1090    1.5076 C.3       1 <0>         0.0786
     28 C28        -3.6869   -2.7967   -2.1325 C.3       1 <0>         0.0744
     29 C29        -4.0154   -1.5731    3.7302 C.3       1 <0>        -0.0678
     30 C30         0.4555    0.7445   -1.3388 C.3       1 <0>         0.1065
     31 N1         -0.4979   -2.7598    1.9615 N.am      1 <0>        -0.4315
     32 N2         -5.8857    2.6895   -0.3772 N.pl3     1 <0>        -0.8671
     33 N3         -4.9183    1.3635   -2.1267 N.pl3     1 <0>        -0.8581
     34 N4          0.4455    0.1980   -0.0008 N.am      1 <0>        -0.5687
     35 N5         -2.9650   -2.6361    0.1813 N.am      1 <0>        -0.5746
     36 N6         -3.4671    2.5948   -0.6325 N.pl3     1 <0>        -0.7533
     37 O1         -0.5362   -1.8555   -0.4928 O.2       1 <0>        -0.5843
     38 O2         -2.2659   -3.9924    2.8322 O.2       1 <0>        -0.6812
     39 O3         -4.3065   -0.9527   -0.6974 O.2       1 <0>        -0.5788
     40 O4         -5.9370   -5.4018   -7.5026 O.3       1 <0>        -0.4938
     41 O5          0.9879   -6.5072   -0.1510 O.3       1 <0>        -0.6030
     42 O6          2.8703    0.8436   -1.3793 O.3       1 <0>        -0.5860
     43 O7         -2.3371   -2.9541   -2.5456 O.3       1 <0>        -0.6021
     44 H1         -3.0344   -2.5740   -5.4721 H         1 <0>         0.1412
     45 H2         -6.7448   -3.4780   -3.4783 H         1 <0>         0.1451
     46 H3         -3.6836   -4.0444   -7.3435 H         1 <0>         0.1336
     47 H4         -7.3913   -4.9479   -5.3521 H         1 <0>         0.1567
     48 H5          3.5627   -2.8549    0.7003 H         1 <0>         0.0649
     49 H6          2.0259   -2.5829   -0.0837 H         1 <0>         0.0476
     50 H7          2.8567   -4.7427   -0.7790 H         1 <0>         0.0641
     51 H8          3.1032   -5.2618    0.8729 H         1 <0>         0.0484
     52 H9          2.1569   -0.7868    1.7257 H         1 <0>         0.0596
     53 H10         1.5124   -1.2395    3.3116 H         1 <0>         0.0757
     54 H11         1.0921   -5.7802    2.3299 H         1 <0>         0.0782
     55 H12        -0.5175   -5.5090    1.7393 H         1 <0>         0.0812
     56 H13        -0.5378   -0.6778    2.3126 H         1 <0>         0.0731
     57 H14         2.6304   -3.2407    2.8169 H         1 <0>         0.0511
     58 H15         0.4523   -3.8218    3.4319 H         1 <0>         0.0753
     59 H16         0.3841   -4.5700   -0.3844 H         1 <0>         0.0427
     60 H17        -3.2863    0.1550    4.8292 H         1 <0>         0.0450
     61 H18        -4.1066    0.5680    3.3260 H         1 <0>         0.0406
     62 H19        -2.4667   -0.1061    3.2804 H         1 <0>         0.0274
     63 H20        -2.1236   -2.5806    4.1412 H         1 <0>         0.0476
     64 H21        -3.0691   -2.1929    5.5894 H         1 <0>         0.0170
     65 H22        -3.5594   -3.5370    4.5502 H         1 <0>         0.0477
     66 H23        -5.3582   -1.5816   -2.7940 H         1 <0>         0.0814
     67 H24        -3.8610   -1.2102   -3.6232 H         1 <0>         0.0685
     68 H25        -1.0263    2.4588    0.4356 H         1 <0>         0.1016
     69 H26        -1.1105    3.8350   -0.6596 H         1 <0>         0.0660
     70 H27         1.1110    2.7323   -0.8028 H         1 <0>         0.0512
     71 H28         0.2685    2.6560   -2.3373 H         1 <0>         0.0454
     72 H29        -4.5642   -3.1100    2.3009 H         1 <0>         0.0575
     73 H30        -4.8775   -1.4748    1.7520 H         1 <0>         0.0743
     74 H31        -2.2283    1.0375   -1.2319 H         1 <0>         0.0662
     75 H32        -2.3103    2.4085   -2.3475 H         1 <0>         0.0622
     76 H33         1.7614    0.6251   -3.0928 H         1 <0>         0.0321
     77 H34         1.8289   -0.7905   -2.0281 H         1 <0>         0.0204
     78 H35        -2.3644   -1.1272    1.4485 H         1 <0>         0.0749
     79 H36        -4.1111   -3.7925   -1.9573 H         1 <0>         0.0719
     80 H37        -5.0090   -1.5561    4.1946 H         1 <0>         0.0609
     81 H38        -0.3978    0.3245   -1.8868 H         1 <0>         0.1063
     82 H39        -5.8171    3.3144    0.4215 H         1 <0>         0.4792
     83 H40        -6.8195    2.4159   -0.6742 H         1 <0>         0.4819
     84 H41        -4.1156    1.0007   -2.6351 H         1 <0>         0.4802
     85 H42        -5.8430    1.0792   -2.4410 H         1 <0>         0.4826
     86 H43         0.8216    0.7626    0.7549 H         1 <0>         0.3101
     87 H44        -2.4970   -3.5171   -0.0370 H         1 <0>         0.3087
     88 H45        -3.4066    3.2281    0.1740 H         1 <0>         0.4846
     89 H46        -5.1512   -5.8177   -7.8916 H         1 <0>         0.4194
     90 H47         1.8515   -6.8926    0.0654 H         1 <0>         0.4036
     91 H48         2.9636    1.7601   -1.6856 H         1 <0>         0.4114
     92 H49        -2.3126   -2.7752   -3.4998 H         1 <0>         0.3944
@<TRIPOS>BOND
     1    1    3 ar
     2    1    5 ar
     3    2    4 ar
     4    2    5 ar
     5    3    6 ar
     6    4    6 ar
     7    5   21 1
     8    6   40 1
     9    7   15 1
    10    7   34 am
    11    7   37 2
    12    8   27 1
    13    8   31 am
    14    8   38 2
    15    9   28 1
    16    9   35 am
    17    9   39 2
    18   10   32 1
    19   10   33 1
    20   10   36 1
    21   11   12 1
    22   11   16 1
    23   12   18 1
    24   13   15 1
    25   13   16 1
    26   14   17 1
    27   14   18 1
    28   15   31 1
    29   16   17 1
    30   17   31 1
    31   18   41 1
    32   19   29 1
    33   20   29 1
    34   21   28 1
    35   22   23 1
    36   22   25 1
    37   23   30 1
    38   24   27 1
    39   24   29 1
    40   25   36 1
    41   26   30 1
    42   26   42 1
    43   27   35 1
    44   28   43 1
    45   30   34 1
    46    1   44 1
    47    2   45 1
    48    3   46 1
    49    4   47 1
    50   11   48 1
    51   11   49 1
    52   12   50 1
    53   12   51 1
    54   13   52 1
    55   13   53 1
    56   14   54 1
    57   14   55 1
    58   15   56 1
    59   16   57 1
    60   17   58 1
    61   18   59 1
    62   19   60 1
    63   19   61 1
    64   19   62 1
    65   20   63 1
    66   20   64 1
    67   20   65 1
    68   21   66 1
    69   21   67 1
    70   22   68 1
    71   22   69 1
    72   23   70 1
    73   23   71 1
    74   24   72 1
    75   24   73 1
    76   25   74 1
    77   25   75 1
    78   26   76 1
    79   26   77 1
    80   27   78 1
    81   28   79 1
    82   29   80 1
    83   30   81 1
    84   32   82 1
    85   32   83 1
    86   33   84 1
    87   33   85 1
    88   34   86 1
    89   35   87 1
    90   36   88 1
    91   40   89 1
    92   41   90 1
    93   42   91 1
    94   43   92 1
@<TRIPOS>MOLECULE
1a2c_ligand_251
   92    94     0     0     0
SMALL
USER_CHARGES

mmff94s_NoEstat = 123.74
@<TRIPOS>ATOM
      1 C1         -2.2486   -4.7102   -4.4538 C.ar      1 <0>        -0.0708
      2 C2         -2.0907   -2.3688   -5.0284 C.ar      1 <0>        -0.0872
      3 C3         -2.1970   -5.0457   -5.8067 C.ar      1 <0>        -0.2241
      4 C4         -2.0391   -2.7043   -6.3813 C.ar      1 <0>        -0.1600
      5 C5         -2.1947   -3.3763   -4.0828 C.ar      1 <0>        -0.1356
      6 C6         -2.0922   -4.0427   -6.7705 C.ar      1 <0>         0.1290
      7 C7         -0.0512   -1.0561    0.2993 C.2       1 <0>         0.6664
      8 C8         -1.8469   -3.0457    2.1630 C.2       1 <0>         0.6651
      9 C9         -3.6974   -2.0123   -0.8263 C.2       1 <0>         0.6454
     10 C10        -5.0538    3.8595   -0.8167 C.cat     1 <0>         0.6349
     11 C11         2.5186   -3.1911    0.6823 C.3       1 <0>        -0.0642
     12 C12         2.4580   -4.6414    0.2376 C.3       1 <0>        -0.0747
     13 C13         1.4874   -1.4827    2.2418 C.3       1 <0>        -0.0873
     14 C14         0.4946   -5.0934    1.7133 C.3       1 <0>        -0.1371
     15 C15         0.0412   -1.4176    1.7503 C.3       1 <0>         0.0360
     16 C16         1.8865   -2.9529    2.0632 C.3       1 <0>        -0.0720
     17 C17         0.5665   -3.7001    2.3454 C.3       1 <0>         0.1201
     18 C18         1.0248   -5.1525    0.2868 C.3       1 <0>         0.1453
     19 C19        -3.4345   -0.1597    3.7904 C.3       1 <0>        -0.0968
     20 C20        -3.1391   -2.5257    4.5483 C.3       1 <0>        -0.0986
     21 C21        -2.2499   -3.0131   -2.6180 C.3       1 <0>        -0.0191
     22 C22        -1.8968    1.7896   -1.0188 C.3       1 <0>        -0.1009
     23 C23        -0.4337    2.0012   -1.4250 C.3       1 <0>        -0.0942
     24 C24        -4.1436   -2.0954    2.2850 C.3       1 <0>        -0.0988
     25 C25        -2.7062    3.0733   -1.1890 C.3       1 <0>         0.1966
     26 C26         1.9058    0.9774   -1.7696 C.3       1 <0>         0.1128
     27 C27        -2.8325   -2.1090    1.5076 C.3       1 <0>         0.0786
     28 C28        -3.6869   -2.7967   -2.1325 C.3       1 <0>         0.0744
     29 C29        -4.0154   -1.5731    3.7302 C.3       1 <0>        -0.0678
     30 C30         0.4555    0.7445   -1.3388 C.3       1 <0>         0.1065
     31 N1         -0.4979   -2.7598    1.9615 N.am      1 <0>        -0.4315
     32 N2         -6.3630    3.5983   -0.4259 N.pl3     1 <0>        -0.8671
     33 N3         -4.7148    5.1409   -1.2376 N.pl3     1 <0>        -0.8581
     34 N4          0.4455    0.1980   -0.0008 N.am      1 <0>        -0.5687
     35 N5         -2.9650   -2.6361    0.1813 N.am      1 <0>        -0.5746
     36 N6         -4.0759    2.8502   -0.7911 N.pl3     1 <0>        -0.7533
     37 O1         -0.5362   -1.8555   -0.4928 O.2       1 <0>        -0.5843
     38 O2         -2.2659   -3.9924    2.8322 O.2       1 <0>        -0.6812
     39 O3         -4.3065   -0.9527   -0.6974 O.2       1 <0>        -0.5788
     40 O4         -2.0402   -4.3703   -8.0906 O.3       1 <0>        -0.4938
     41 O5          0.9879   -6.5072   -0.1510 O.3       1 <0>        -0.6030
     42 O6          2.6391   -0.2366   -1.6731 O.3       1 <0>        -0.5860
     43 O7         -4.2899   -4.0610   -1.8967 O.3       1 <0>        -0.6021
     44 H1         -2.3303   -5.4984   -3.7103 H         1 <0>         0.1412
     45 H2         -2.0483   -1.3233   -4.7344 H         1 <0>         0.1451
     46 H3         -2.2386   -6.0899   -6.1035 H         1 <0>         0.1336
     47 H4         -1.9565   -1.9184   -7.1275 H         1 <0>         0.1567
     48 H5          3.5627   -2.8549    0.7003 H         1 <0>         0.0649
     49 H6          2.0259   -2.5829   -0.0837 H         1 <0>         0.0476
     50 H7          2.8567   -4.7427   -0.7790 H         1 <0>         0.0641
     51 H8          3.1032   -5.2618    0.8729 H         1 <0>         0.0484
     52 H9          2.1569   -0.7868    1.7257 H         1 <0>         0.0596
     53 H10         1.5124   -1.2395    3.3116 H         1 <0>         0.0757
     54 H11         1.0921   -5.7802    2.3299 H         1 <0>         0.0782
     55 H12        -0.5175   -5.5090    1.7393 H         1 <0>         0.0812
     56 H13        -0.5378   -0.6778    2.3126 H         1 <0>         0.0731
     57 H14         2.6304   -3.2407    2.8169 H         1 <0>         0.0511
     58 H15         0.4523   -3.8218    3.4319 H         1 <0>         0.0753
     59 H16         0.3841   -4.5700   -0.3844 H         1 <0>         0.0427
     60 H17        -3.2863    0.1550    4.8292 H         1 <0>         0.0450
     61 H18        -4.1066    0.5680    3.3260 H         1 <0>         0.0406
     62 H19        -2.4667   -0.1061    3.2804 H         1 <0>         0.0274
     63 H20        -2.1236   -2.5806    4.1412 H         1 <0>         0.0476
     64 H21        -3.0691   -2.1929    5.5894 H         1 <0>         0.0170
     65 H22        -3.5594   -3.5370    4.5502 H         1 <0>         0.0477
     66 H23        -1.6549   -2.1055   -2.4495 H         1 <0>         0.0814
     67 H24        -1.7526   -3.8070   -2.0467 H         1 <0>         0.0685
     68 H25        -2.3478    0.9988   -1.6296 H         1 <0>         0.1016
     69 H26        -1.9571    1.4582    0.0248 H         1 <0>         0.0660
     70 H27         0.0021    2.7844   -0.7898 H         1 <0>         0.0512
     71 H28        -0.4008    2.3932   -2.4497 H         1 <0>         0.0454
     72 H29        -4.5642   -3.1100    2.3009 H         1 <0>         0.0575
     73 H30        -4.8775   -1.4748    1.7520 H         1 <0>         0.0743
     74 H31        -2.6850    3.4001   -2.2340 H         1 <0>         0.0662
     75 H32        -2.2833    3.8776   -0.5783 H         1 <0>         0.0622
     76 H33         2.4001    1.7344   -1.1517 H         1 <0>         0.0321
     77 H34         1.9468    1.3120   -2.8125 H         1 <0>         0.0204
     78 H35        -2.3644   -1.1272    1.4485 H         1 <0>         0.0749
     79 H36        -4.2885   -2.2626   -2.8775 H         1 <0>         0.0719
     80 H37        -5.0090   -1.5561    4.1946 H         1 <0>         0.0609
     81 H38         0.0149    0.0012   -2.0158 H         1 <0>         0.1063
     82 H39        -6.6569    2.6769   -0.1130 H         1 <0>         0.4792
     83 H40        -7.0699    4.3298   -0.4455 H         1 <0>         0.4819
     84 H41        -3.7671    5.3663   -1.5301 H         1 <0>         0.4802
     85 H42        -5.4059    5.8868   -1.2630 H         1 <0>         0.4826
     86 H43         0.8216    0.7626    0.7549 H         1 <0>         0.3101
     87 H44        -2.4970   -3.5171   -0.0370 H         1 <0>         0.3087
     88 H45        -4.3806    1.9226   -0.4717 H         1 <0>         0.4846
     89 H46        -2.5628   -5.1704   -8.2594 H         1 <0>         0.4194
     90 H47         1.8515   -6.8926    0.0654 H         1 <0>         0.4036
     91 H48         2.8853   -0.3414   -0.7399 H         1 <0>         0.4114
     92 H49        -3.7363   -4.7236   -2.3413 H         1 <0>         0.3944
@<TRIPOS>BOND
     1    1    3 ar
     2    1    5 ar
     3    2    4 ar
     4    2    5 ar
     5    3    6 ar
     6    4    6 ar
     7    5   21 1
     8    6   40 1
     9    7   15 1
    10    7   34 am
    11    7   37 2
    12    8   27 1
    13    8   31 am
    14    8   38 2
    15    9   28 1
    16    9   35 am
    17    9   39 2
    18   10   32 1
    19   10   33 1
    20   10   36 1
    21   11   12 1
    22   11   16 1
    23   12   18 1
    24   13   15 1
    25   13   16 1
    26   14   17 1
    27   14   18 1
    28   15   31 1
    29   16   17 1
    30   17   31 1
    31   18   41 1
    32   19   29 1
    33   20   29 1
    34   21   28 1
    35   22   23 1
    36   22   25 1
    37   23   30 1
    38   24   27 1
    39   24   29 1
    40   25   36 1
    41   26   30 1
    42   26   42 1
    43   27   35 1
    44   28   43 1
    45   30   34 1
    46    1   44 1
    47    2   45 1
    48    3   46 1
    49    4   47 1
    50   11   48 1
    51   11   49 1
    52   12   50 1
    53   12   51 1
    54   13   52 1
    55   13   53 1
    56   14   54 1
    57   14   55 1
    58   15   56 1
    59   16   57 1
    60   17   58 1
    61   18   59 1
    62   19   60 1
    63   19   61 1
    64   19   62 1
    65   20   63 1
    66   20   64 1
    67   20   65 1
    68   21   66 1
    69   21   67 1
    70   22   68 1
    71   22   69 1
    72   23   70 1
    73   23   71 1
    74   24   72 1
    75   24   73 1
    76   25   74 1
    77   25   75 1
    78   26   76 1
    79   26   77 1
    80   27   78 1
    81   28   79 1
    82   29   80 1
    83   30   81 1
    84   32   82 1
    85   32   83 1
    86   33   84 1
    87   33   85 1
    88   34   86 1
    89   35   87 1
    90   36   88 1
    91   40   89 1
    92   41   90 1
    93   42   91 1
    94   43   92 1
@<TRIPOS>MOLECULE
1a2c_ligand_252
   92    94     0     0     0
SMALL
USER_CHARGES

mmff94s_NoEstat = 123.89
@<TRIPOS>ATOM
      1 C1         -4.9929   -5.5460   -4.3314 C.ar      1 <0>        -0.0708
      2 C2         -6.2813   -3.5051   -4.2233 C.ar      1 <0>        -0.0872
      3 C3         -6.0094   -6.1484   -5.0726 C.ar      1 <0>        -0.2241
      4 C4         -7.2979   -4.1076   -4.9645 C.ar      1 <0>        -0.1600
      5 C5         -5.1424   -4.2324   -3.9167 C.ar      1 <0>        -0.1356
      6 C6         -7.1619   -5.4292   -5.3891 C.ar      1 <0>         0.1290
      7 C7         -0.0512   -1.0561    0.2993 C.2       1 <0>         0.6664
      8 C8         -1.8469   -3.0457    2.1630 C.2       1 <0>         0.6651
      9 C9         -3.4040   -2.7670   -0.8258 C.2       1 <0>         0.6454
     10 C10        -4.7581    2.2187   -1.0418 C.cat     1 <0>         0.6349
     11 C11         2.5186   -3.1911    0.6823 C.3       1 <0>        -0.0642
     12 C12         2.4580   -4.6414    0.2376 C.3       1 <0>        -0.0747
     13 C13         1.4874   -1.4827    2.2418 C.3       1 <0>        -0.0873
     14 C14         0.4946   -5.0934    1.7133 C.3       1 <0>        -0.1371
     15 C15         0.0412   -1.4176    1.7503 C.3       1 <0>         0.0360
     16 C16         1.8865   -2.9529    2.0632 C.3       1 <0>        -0.0720
     17 C17         0.5665   -3.7001    2.3454 C.3       1 <0>         0.1201
     18 C18         1.0248   -5.1525    0.2868 C.3       1 <0>         0.1453
     19 C19        -5.7275   -1.2982    0.9287 C.3       1 <0>        -0.0968
     20 C20        -4.2097    0.6462    1.3473 C.3       1 <0>        -0.0986
     21 C21        -4.0416   -3.5799   -3.1149 C.3       1 <0>        -0.0191
     22 C22        -1.0374    2.7415   -0.6235 C.3       1 <0>        -0.1009
     23 C23         0.2513    2.2726   -1.3090 C.3       1 <0>        -0.0942
     24 C24        -3.7699   -1.5150    2.5525 C.3       1 <0>        -0.0988
     25 C25        -2.2684    2.1304   -1.2894 C.3       1 <0>         0.1966
     26 C26         1.7383    0.3016   -2.0469 C.3       1 <0>         0.1128
     27 C27        -2.8325   -2.1090    1.5076 C.3       1 <0>         0.0786
     28 C28        -4.2317   -3.7794   -1.6077 C.3       1 <0>         0.0744
     29 C29        -4.8597   -0.5919    1.9712 C.3       1 <0>        -0.0678
     30 C30         0.4555    0.7445   -1.3388 C.3       1 <0>         0.1065
     31 N1         -0.4979   -2.7598    1.9615 N.am      1 <0>        -0.4315
     32 N2         -5.8857    2.6895   -0.3772 N.pl3     1 <0>        -0.8671
     33 N3         -4.9183    1.3635   -2.1267 N.pl3     1 <0>        -0.8581
     34 N4          0.4455    0.1980   -0.0008 N.am      1 <0>        -0.5687
     35 N5         -3.5026   -2.9419    0.5527 N.am      1 <0>        -0.5746
     36 N6         -3.4671    2.5948   -0.6325 N.pl3     1 <0>        -0.7533
     37 O1         -0.5362   -1.8555   -0.4928 O.2       1 <0>        -0.5843
     38 O2         -2.2659   -3.9924    2.8322 O.2       1 <0>        -0.6812
     39 O3         -2.7407   -1.8909   -1.3761 O.2       1 <0>        -0.5788
     40 O4         -8.1531   -6.0167   -6.1138 O.3       1 <0>        -0.4938
     41 O5          0.9879   -6.5072   -0.1510 O.3       1 <0>        -0.6030
     42 O6          2.8703    0.8436   -1.3793 O.3       1 <0>        -0.5860
     43 O7         -3.7895   -5.0823   -1.2550 O.3       1 <0>        -0.6021
     44 H1         -4.0988   -6.1142   -4.0895 H         1 <0>         0.1412
     45 H2         -6.3958   -2.4747   -3.8969 H         1 <0>         0.1451
     46 H3         -5.8975   -7.1781   -5.4005 H         1 <0>         0.1336
     47 H4         -8.1930   -3.5417   -5.2088 H         1 <0>         0.1567
     48 H5          3.5627   -2.8549    0.7003 H         1 <0>         0.0649
     49 H6          2.0259   -2.5829   -0.0837 H         1 <0>         0.0476
     50 H7          2.8567   -4.7427   -0.7790 H         1 <0>         0.0641
     51 H8          3.1032   -5.2618    0.8729 H         1 <0>         0.0484
     52 H9          2.1569   -0.7868    1.7257 H         1 <0>         0.0596
     53 H10         1.5124   -1.2395    3.3116 H         1 <0>         0.0757
     54 H11         1.0921   -5.7802    2.3299 H         1 <0>         0.0782
     55 H12        -0.5175   -5.5090    1.7393 H         1 <0>         0.0812
     56 H13        -0.5378   -0.6778    2.3126 H         1 <0>         0.0731
     57 H14         2.6304   -3.2407    2.8169 H         1 <0>         0.0511
     58 H15         0.4523   -3.8218    3.4319 H         1 <0>         0.0753
     59 H16         0.3841   -4.5700   -0.3844 H         1 <0>         0.0427
     60 H17        -6.4424   -0.5993    0.4810 H         1 <0>         0.0450
     61 H18        -6.3080   -2.1101    1.3767 H         1 <0>         0.0406
     62 H19        -5.1167   -1.7184    0.1225 H         1 <0>         0.0274
     63 H20        -3.5507    0.3732    0.5159 H         1 <0>         0.0476
     64 H21        -4.9709    1.3343    0.9644 H         1 <0>         0.0170
     65 H22        -3.6139    1.1889    2.0888 H         1 <0>         0.0477
     66 H23        -4.0106   -2.5080   -3.3518 H         1 <0>         0.0814
     67 H24        -3.0807   -3.9886   -3.4518 H         1 <0>         0.0685
     68 H25        -1.0263    2.4588    0.4356 H         1 <0>         0.1016
     69 H26        -1.1105    3.8350   -0.6596 H         1 <0>         0.0660
     70 H27         1.1110    2.7323   -0.8028 H         1 <0>         0.0512
     71 H28         0.2685    2.6560   -2.3373 H         1 <0>         0.0454
     72 H29        -3.1790   -0.9587    3.2928 H         1 <0>         0.0575
     73 H30        -4.2588   -2.3274    3.1083 H         1 <0>         0.0743
     74 H31        -2.2283    1.0375   -1.2319 H         1 <0>         0.0662
     75 H32        -2.3103    2.4085   -2.3475 H         1 <0>         0.0622
     76 H33         1.7614    0.6251   -3.0928 H         1 <0>         0.0321
     77 H34         1.8289   -0.7905   -2.0281 H         1 <0>         0.0204
     78 H35        -2.2612   -1.3523    0.9714 H         1 <0>         0.0749
     79 H36        -5.2848   -3.6836   -1.3176 H         1 <0>         0.0719
     80 H37        -5.5109   -0.2494    2.7849 H         1 <0>         0.0609
     81 H38        -0.3978    0.3245   -1.8868 H         1 <0>         0.1063
     82 H39        -5.8171    3.3144    0.4215 H         1 <0>         0.4792
     83 H40        -6.8195    2.4159   -0.6742 H         1 <0>         0.4819
     84 H41        -4.1156    1.0007   -2.6351 H         1 <0>         0.4802
     85 H42        -5.8430    1.0792   -2.4410 H         1 <0>         0.4826
     86 H43         0.8216    0.7626    0.7549 H         1 <0>         0.3101
     87 H44        -4.0841   -3.7053    0.9020 H         1 <0>         0.3087
     88 H45        -3.4066    3.2281    0.1740 H         1 <0>         0.4846
     89 H46        -8.1971   -6.9658   -5.9160 H         1 <0>         0.4194
     90 H47         1.8515   -6.8926    0.0654 H         1 <0>         0.4036
     91 H48         2.9636    1.7601   -1.6856 H         1 <0>         0.4114
     92 H49        -3.7253   -5.5902   -2.0803 H         1 <0>         0.3944
@<TRIPOS>BOND
     1    1    3 ar
     2    1    5 ar
     3    2    4 ar
     4    2    5 ar
     5    3    6 ar
     6    4    6 ar
     7    5   21 1
     8    6   40 1
     9    7   15 1
    10    7   34 am
    11    7   37 2
    12    8   27 1
    13    8   31 am
    14    8   38 2
    15    9   28 1
    16    9   35 am
    17    9   39 2
    18   10   32 1
    19   10   33 1
    20   10   36 1
    21   11   12 1
    22   11   16 1
    23   12   18 1
    24   13   15 1
    25   13   16 1
    26   14   17 1
    27   14   18 1
    28   15   31 1
    29   16   17 1
    30   17   31 1
    31   18   41 1
    32   19   29 1
    33   20   29 1
    34   21   28 1
    35   22   23 1
    36   22   25 1
    37   23   30 1
    38   24   27 1
    39   24   29 1
    40   25   36 1
    41   26   30 1
    42   26   42 1
    43   27   35 1
    44   28   43 1
    45   30   34 1
    46    1   44 1
    47    2   45 1
    48    3   46 1
    49    4   47 1
    50   11   48 1
    51   11   49 1
    52   12   50 1
    53   12   51 1
    54   13   52 1
    55   13   53 1
    56   14   54 1
    57   14   55 1
    58   15   56 1
    59   16   57 1
    60   17   58 1
    61   18   59 1
    62   19   60 1
    63   19   61 1
    64   19   62 1
    65   20   63 1
    66   20   64 1
    67   20   65 1
    68   21   66 1
    69   21   67 1
    70   22   68 1
    71   22   69 1
    72   23   70 1
    73   23   71 1
    74   24   72 1
    75   24   73 1
    76   25   74 1
    77   25   75 1
    78   26   76 1
    79   26   77 1
    80   27   78 1
    81   28   79 1
    82   29   80 1
    83   30   81 1
    84   32   82 1
    85   32   83 1
    86   33   84 1
    87   33   85 1
    88   34   86 1
    89   35   87 1
    90   36   88 1
    91   40   89 1
    92   41   90 1
    93   42   91 1
    94   43   92 1
@<TRIPOS>MOLECULE
1a2c_ligand_253
   92    94     0     0     0
SMALL
USER_CHARGES

mmff94s_NoEstat = 123.89
@<TRIPOS>ATOM
      1 C1         -6.3570   -4.5806   -3.0309 C.ar      1 <0>        -0.0708
      2 C2         -6.9553   -2.8328   -1.4739 C.ar      1 <0>        -0.0872
      3 C3         -7.4402   -5.3421   -2.5924 C.ar      1 <0>        -0.2241
      4 C4         -8.0386   -3.5943   -1.0354 C.ar      1 <0>        -0.1600
      5 C5         -6.1291   -3.3362   -2.4659 C.ar      1 <0>        -0.1356
      6 C6         -8.2811   -4.8489   -1.5946 C.ar      1 <0>         0.1290
      7 C7         -0.0512   -1.0561    0.2993 C.2       1 <0>         0.6664
      8 C8         -1.8469   -3.0457    2.1630 C.2       1 <0>         0.6651
      9 C9         -3.6974   -2.0123   -0.8263 C.2       1 <0>         0.6454
     10 C10        -3.7050    4.2413   -3.1125 C.cat     1 <0>         0.6349
     11 C11         2.5186   -3.1911    0.6823 C.3       1 <0>        -0.0642
     12 C12         2.4580   -4.6414    0.2376 C.3       1 <0>        -0.0747
     13 C13         1.4874   -1.4827    2.2418 C.3       1 <0>        -0.0873
     14 C14         0.4946   -5.0934    1.7133 C.3       1 <0>        -0.1371
     15 C15         0.0412   -1.4176    1.7503 C.3       1 <0>         0.0360
     16 C16         1.8865   -2.9529    2.0632 C.3       1 <0>        -0.0720
     17 C17         0.5665   -3.7001    2.3454 C.3       1 <0>         0.1201
     18 C18         1.0248   -5.1525    0.2868 C.3       1 <0>         0.1453
     19 C19        -3.4345   -0.1597    3.7904 C.3       1 <0>        -0.0968
     20 C20        -3.1391   -2.5257    4.5483 C.3       1 <0>        -0.0986
     21 C21        -4.9567   -2.5115   -2.9411 C.3       1 <0>        -0.0191
     22 C22        -1.2019    2.6554   -0.7648 C.3       1 <0>        -0.1009
     23 C23        -0.8794    1.4488   -1.6540 C.3       1 <0>        -0.0942
     24 C24        -4.1436   -2.0954    2.2850 C.3       1 <0>        -0.0988
     25 C25        -2.5638    3.2498   -1.1169 C.3       1 <0>         0.1966
     26 C26         1.6856    1.6412   -1.5001 C.3       1 <0>         0.1128
     27 C27        -2.8325   -2.1090    1.5076 C.3       1 <0>         0.0786
     28 C28        -3.6869   -2.7967   -2.1325 C.3       1 <0>         0.0744
     29 C29        -4.0154   -1.5731    3.7302 C.3       1 <0>        -0.0678
     30 C30         0.4555    0.7445   -1.3388 C.3       1 <0>         0.1065
     31 N1         -0.4979   -2.7598    1.9615 N.am      1 <0>        -0.4315
     32 N2         -3.6699    4.6391   -4.4450 N.pl3     1 <0>        -0.8671
     33 N3         -4.8785    4.4093   -2.3855 N.pl3     1 <0>        -0.8581
     34 N4          0.4455    0.1980   -0.0008 N.am      1 <0>        -0.5687
     35 N5         -2.9650   -2.6361    0.1813 N.am      1 <0>        -0.5746
     36 N6         -2.5755    3.6752   -2.4964 N.pl3     1 <0>        -0.7533
     37 O1         -0.5362   -1.8555   -0.4928 O.2       1 <0>        -0.5843
     38 O2         -2.2659   -3.9924    2.8322 O.2       1 <0>        -0.6812
     39 O3         -4.3065   -0.9527   -0.6974 O.2       1 <0>        -0.5788
     40 O4         -9.3391   -5.5914   -1.1679 O.3       1 <0>        -0.4938
     41 O5          0.9879   -6.5072   -0.1510 O.3       1 <0>        -0.6030
     42 O6          2.8639    0.9021   -1.2063 O.3       1 <0>        -0.5860
     43 O7         -2.5564   -2.3866   -2.8882 O.3       1 <0>        -0.6021
     44 H1         -5.7074   -4.9732   -3.8085 H         1 <0>         0.1412
     45 H2         -6.7742   -1.8561   -1.0327 H         1 <0>         0.1451
     46 H3         -7.6239   -6.3185   -3.0320 H         1 <0>         0.1336
     47 H4         -8.6907   -3.2042   -0.2583 H         1 <0>         0.1567
     48 H5          3.5627   -2.8549    0.7003 H         1 <0>         0.0649
     49 H6          2.0259   -2.5829   -0.0837 H         1 <0>         0.0476
     50 H7          2.8567   -4.7427   -0.7790 H         1 <0>         0.0641
     51 H8          3.1032   -5.2618    0.8729 H         1 <0>         0.0484
     52 H9          2.1569   -0.7868    1.7257 H         1 <0>         0.0596
     53 H10         1.5124   -1.2395    3.3116 H         1 <0>         0.0757
     54 H11         1.0921   -5.7802    2.3299 H         1 <0>         0.0782
     55 H12        -0.5175   -5.5090    1.7393 H         1 <0>         0.0812
     56 H13        -0.5378   -0.6778    2.3126 H         1 <0>         0.0731
     57 H14         2.6304   -3.2407    2.8169 H         1 <0>         0.0511
     58 H15         0.4523   -3.8218    3.4319 H         1 <0>         0.0753
     59 H16         0.3841   -4.5700   -0.3844 H         1 <0>         0.0427
     60 H17        -3.2863    0.1550    4.8292 H         1 <0>         0.0450
     61 H18        -4.1066    0.5680    3.3260 H         1 <0>         0.0406
     62 H19        -2.4667   -0.1061    3.2804 H         1 <0>         0.0274
     63 H20        -2.1236   -2.5806    4.1412 H         1 <0>         0.0476
     64 H21        -3.0691   -2.1929    5.5894 H         1 <0>         0.0170
     65 H22        -3.5594   -3.5370    4.5502 H         1 <0>         0.0477
     66 H23        -5.2149   -1.4462   -2.8732 H         1 <0>         0.0814
     67 H24        -4.8022   -2.7143   -4.0083 H         1 <0>         0.0685
     68 H25        -1.2036    2.3575    0.2901 H         1 <0>         0.1016
     69 H26        -0.4298    3.4262   -0.8760 H         1 <0>         0.0660
     70 H27        -0.8663    1.7736   -2.7033 H         1 <0>         0.0512
     71 H28        -1.6959    0.7195   -1.5759 H         1 <0>         0.0454
     72 H29        -4.5642   -3.1100    2.3009 H         1 <0>         0.0575
     73 H30        -4.8775   -1.4748    1.7520 H         1 <0>         0.0743
     74 H31        -2.7806    4.1099   -0.4745 H         1 <0>         0.0662
     75 H32        -3.3565    2.5102   -0.9645 H         1 <0>         0.0622
     76 H33         1.6463    2.5133   -0.8391 H         1 <0>         0.0321
     77 H34         1.7645    2.0016   -2.5321 H         1 <0>         0.0204
     78 H35        -2.3644   -1.1272    1.4485 H         1 <0>         0.0749
     79 H36        -3.5820   -3.8651   -1.9094 H         1 <0>         0.0719
     80 H37        -5.0090   -1.5561    4.1946 H         1 <0>         0.0609
     81 H38         0.5463   -0.0881   -2.0483 H         1 <0>         0.1063
     82 H39        -2.8341    4.5376   -5.0145 H         1 <0>         0.4792
     83 H40        -4.4880    5.0493   -4.8895 H         1 <0>         0.4819
     84 H41        -4.9387    4.1296   -1.4095 H         1 <0>         0.4802
     85 H42        -5.7081    4.8156   -2.8114 H         1 <0>         0.4826
     86 H43         0.8216    0.7626    0.7549 H         1 <0>         0.3101
     87 H44        -2.4970   -3.5171   -0.0370 H         1 <0>         0.3087
     88 H45        -1.7358    3.5742   -3.0793 H         1 <0>         0.4846
     89 H46        -9.1286   -6.5373   -1.2190 H         1 <0>         0.4194
     90 H47         1.8515   -6.8926    0.0654 H         1 <0>         0.4036
     91 H48         2.9483    0.8828   -0.2393 H         1 <0>         0.4114
     92 H49        -2.8568   -2.2745   -3.8049 H         1 <0>         0.3944
@<TRIPOS>BOND
     1    1    3 ar
     2    1    5 ar
     3    2    4 ar
     4    2    5 ar
     5    3    6 ar
     6    4    6 ar
     7    5   21 1
     8    6   40 1
     9    7   15 1
    10    7   34 am
    11    7   37 2
    12    8   27 1
    13    8   31 am
    14    8   38 2
    15    9   28 1
    16    9   35 am
    17    9   39 2
    18   10   32 1
    19   10   33 1
    20   10   36 1
    21   11   12 1
    22   11   16 1
    23   12   18 1
    24   13   15 1
    25   13   16 1
    26   14   17 1
    27   14   18 1
    28   15   31 1
    29   16   17 1
    30   17   31 1
    31   18   41 1
    32   19   29 1
    33   20   29 1
    34   21   28 1
    35   22   23 1
    36   22   25 1
    37   23   30 1
    38   24   27 1
    39   24   29 1
    40   25   36 1
    41   26   30 1
    42   26   42 1
    43   27   35 1
    44   28   43 1
    45   30   34 1
    46    1   44 1
    47    2   45 1
    48    3   46 1
    49    4   47 1
    50   11   48 1
    51   11   49 1
    52   12   50 1
    53   12   51 1
    54   13   52 1
    55   13   53 1
    56   14   54 1
    57   14   55 1
    58   15   56 1
    59   16   57 1
    60   17   58 1
    61   18   59 1
    62   19   60 1
    63   19   61 1
    64   19   62 1
    65   20   63 1
    66   20   64 1
    67   20   65 1
    68   21   66 1
    69   21   67 1
    70   22   68 1
    71   22   69 1
    72   23   70 1
    73   23   71 1
    74   24   72 1
    75   24   73 1
    76   25   74 1
    77   25   75 1
    78   26   76 1
    79   26   77 1
    80   27   78 1
    81   28   79 1
    82   29   80 1
    83   30   81 1
    84   32   82 1
    85   32   83 1
    86   33   84 1
    87   33   85 1
    88   34   86 1
    89   35   87 1
    90   36   88 1
    91   40   89 1
    92   41   90 1
    93   42   91 1
    94   43   92 1
@<TRIPOS>MOLECULE
1a2c_ligand_254
   92    94     0     0     0
SMALL
USER_CHARGES

mmff94s_NoEstat = 123.92
@<TRIPOS>ATOM
      1 C1         -5.0840   -3.9567   -4.9291 C.ar      1 <0>        -0.0708
      2 C2         -5.2517   -5.5653   -3.1343 C.ar      1 <0>        -0.0872
      3 C3         -5.1172   -4.9936   -5.8615 C.ar      1 <0>        -0.2241
      4 C4         -5.2849   -6.6022   -4.0667 C.ar      1 <0>        -0.1600
      5 C5         -5.1518   -4.2565   -3.5780 C.ar      1 <0>        -0.1356
      6 C6         -5.2176   -6.3164   -5.4303 C.ar      1 <0>         0.1290
      7 C7         -0.0512   -1.0561    0.2993 C.2       1 <0>         0.6664
      8 C8         -1.8469   -3.0457    2.1630 C.2       1 <0>         0.6651
      9 C9         -3.6974   -2.0123   -0.8263 C.2       1 <0>         0.6454
     10 C10         0.1087    6.2839    0.0320 C.cat     1 <0>         0.6349
     11 C11         2.5186   -3.1911    0.6823 C.3       1 <0>        -0.0642
     12 C12         2.4580   -4.6414    0.2376 C.3       1 <0>        -0.0747
     13 C13         1.4874   -1.4827    2.2418 C.3       1 <0>        -0.0873
     14 C14         0.4946   -5.0934    1.7133 C.3       1 <0>        -0.1371
     15 C15         0.0412   -1.4176    1.7503 C.3       1 <0>         0.0360
     16 C16         1.8865   -2.9529    2.0632 C.3       1 <0>        -0.0720
     17 C17         0.5665   -3.7001    2.3454 C.3       1 <0>         0.1201
     18 C18         1.0248   -5.1525    0.2868 C.3       1 <0>         0.1453
     19 C19        -3.4345   -0.1597    3.7904 C.3       1 <0>        -0.0968
     20 C20        -3.1391   -2.5257    4.5483 C.3       1 <0>        -0.0986
     21 C21        -5.1165   -3.1339   -2.5686 C.3       1 <0>        -0.0191
     22 C22        -1.0374    2.7415   -0.6235 C.3       1 <0>        -0.1009
     23 C23         0.2513    2.2726   -1.3090 C.3       1 <0>        -0.0942
     24 C24        -4.1436   -2.0954    2.2850 C.3       1 <0>        -0.0988
     25 C25        -1.1758    4.2607   -0.6924 C.3       1 <0>         0.1966
     26 C26         1.7383    0.3016   -2.0469 C.3       1 <0>         0.1128
     27 C27        -2.8325   -2.1090    1.5076 C.3       1 <0>         0.0786
     28 C28        -3.6869   -2.7967   -2.1325 C.3       1 <0>         0.0744
     29 C29        -4.0154   -1.5731    3.7302 C.3       1 <0>        -0.0678
     30 C30         0.4555    0.7445   -1.3388 C.3       1 <0>         0.1065
     31 N1         -0.4979   -2.7598    1.9615 N.am      1 <0>        -0.4315
     32 N2          1.2089    6.8461    0.6711 N.pl3     1 <0>        -0.8671
     33 N3         -0.8437    7.1205   -0.5399 N.pl3     1 <0>        -0.8581
     34 N4          0.4455    0.1980   -0.0008 N.am      1 <0>        -0.5687
     35 N5         -2.9650   -2.6361    0.1813 N.am      1 <0>        -0.5746
     36 N6         -0.0506    4.8893   -0.0421 N.pl3     1 <0>        -0.7533
     37 O1         -0.5362   -1.8555   -0.4928 O.2       1 <0>        -0.5843
     38 O2         -2.2659   -3.9924    2.8322 O.2       1 <0>        -0.6812
     39 O3         -4.3065   -0.9527   -0.6974 O.2       1 <0>        -0.5788
     40 O4         -5.2516   -7.3281   -6.3403 O.3       1 <0>        -0.4938
     41 O5          0.9879   -6.5072   -0.1510 O.3       1 <0>        -0.6030
     42 O6          2.8703    0.8436   -1.3793 O.3       1 <0>        -0.5860
     43 O7         -3.0778   -1.9902   -3.1305 O.3       1 <0>        -0.6021
     44 H1         -5.0054   -2.9295   -5.2745 H         1 <0>         0.1412
     45 H2         -5.3050   -5.7974   -2.0738 H         1 <0>         0.1451
     46 H3         -5.0646   -4.7645   -6.9222 H         1 <0>         0.1336
     47 H4         -5.3642   -7.6308   -3.7246 H         1 <0>         0.1567
     48 H5          3.5627   -2.8549    0.7003 H         1 <0>         0.0649
     49 H6          2.0259   -2.5829   -0.0837 H         1 <0>         0.0476
     50 H7          2.8567   -4.7427   -0.7790 H         1 <0>         0.0641
     51 H8          3.1032   -5.2618    0.8729 H         1 <0>         0.0484
     52 H9          2.1569   -0.7868    1.7257 H         1 <0>         0.0596
     53 H10         1.5124   -1.2395    3.3116 H         1 <0>         0.0757
     54 H11         1.0921   -5.7802    2.3299 H         1 <0>         0.0782
     55 H12        -0.5175   -5.5090    1.7393 H         1 <0>         0.0812
     56 H13        -0.5378   -0.6778    2.3126 H         1 <0>         0.0731
     57 H14         2.6304   -3.2407    2.8169 H         1 <0>         0.0511
     58 H15         0.4523   -3.8218    3.4319 H         1 <0>         0.0753
     59 H16         0.3841   -4.5700   -0.3844 H         1 <0>         0.0427
     60 H17        -3.2863    0.1550    4.8292 H         1 <0>         0.0450
     61 H18        -4.1066    0.5680    3.3260 H         1 <0>         0.0406
     62 H19        -2.4667   -0.1061    3.2804 H         1 <0>         0.0274
     63 H20        -2.1236   -2.5806    4.1412 H         1 <0>         0.0476
     64 H21        -3.0691   -2.1929    5.5894 H         1 <0>         0.0170
     65 H22        -3.5594   -3.5370    4.5502 H         1 <0>         0.0477
     66 H23        -5.7199   -3.4159   -1.6954 H         1 <0>         0.0814
     67 H24        -5.6149   -2.2600   -3.0069 H         1 <0>         0.0685
     68 H25        -1.9092    2.2808   -1.1025 H         1 <0>         0.1016
     69 H26        -1.0467    2.4234    0.4259 H         1 <0>         0.0660
     70 H27         1.1110    2.7323   -0.8028 H         1 <0>         0.0512
     71 H28         0.2685    2.6560   -2.3373 H         1 <0>         0.0454
     72 H29        -4.5642   -3.1100    2.3009 H         1 <0>         0.0575
     73 H30        -4.8775   -1.4748    1.7520 H         1 <0>         0.0743
     74 H31        -2.0997    4.5809   -0.1994 H         1 <0>         0.0662
     75 H32        -1.2190    4.5954   -1.7340 H         1 <0>         0.0622
     76 H33         1.7614    0.6251   -3.0928 H         1 <0>         0.0321
     77 H34         1.8289   -0.7905   -2.0281 H         1 <0>         0.0204
     78 H35        -2.3644   -1.1272    1.4485 H         1 <0>         0.0749
     79 H36        -3.0804   -3.7010   -2.0039 H         1 <0>         0.0719
     80 H37        -5.0090   -1.5561    4.1946 H         1 <0>         0.0609
     81 H38        -0.3978    0.3245   -1.8868 H         1 <0>         0.1063
     82 H39         1.9287    6.2742    1.1048 H         1 <0>         0.4792
     83 H40         1.3225    7.8557    0.7245 H         1 <0>         0.4819
     84 H41        -1.6601    6.7429   -1.0146 H         1 <0>         0.4802
     85 H42        -0.7481    8.1323   -0.4992 H         1 <0>         0.4826
     86 H43         0.8216    0.7626    0.7549 H         1 <0>         0.3101
     87 H44        -2.4970   -3.5171   -0.0370 H         1 <0>         0.3087
     88 H45         0.6822    4.3187    0.3968 H         1 <0>         0.4846
     89 H46        -4.7214   -7.0974   -7.1197 H         1 <0>         0.4194
     90 H47         1.8515   -6.8926    0.0654 H         1 <0>         0.4036
     91 H48         2.9636    1.7601   -1.6856 H         1 <0>         0.4114
     92 H49        -3.6213   -2.0752   -3.9308 H         1 <0>         0.3944
@<TRIPOS>BOND
     1    1    3 ar
     2    1    5 ar
     3    2    4 ar
     4    2    5 ar
     5    3    6 ar
     6    4    6 ar
     7    5   21 1
     8    6   40 1
     9    7   15 1
    10    7   34 am
    11    7   37 2
    12    8   27 1
    13    8   31 am
    14    8   38 2
    15    9   28 1
    16    9   35 am
    17    9   39 2
    18   10   32 1
    19   10   33 1
    20   10   36 1
    21   11   12 1
    22   11   16 1
    23   12   18 1
    24   13   15 1
    25   13   16 1
    26   14   17 1
    27   14   18 1
    28   15   31 1
    29   16   17 1
    30   17   31 1
    31   18   41 1
    32   19   29 1
    33   20   29 1
    34   21   28 1
    35   22   23 1
    36   22   25 1
    37   23   30 1
    38   24   27 1
    39   24   29 1
    40   25   36 1
    41   26   30 1
    42   26   42 1
    43   27   35 1
    44   28   43 1
    45   30   34 1
    46    1   44 1
    47    2   45 1
    48    3   46 1
    49    4   47 1
    50   11   48 1
    51   11   49 1
    52   12   50 1
    53   12   51 1
    54   13   52 1
    55   13   53 1
    56   14   54 1
    57   14   55 1
    58   15   56 1
    59   16   57 1
    60   17   58 1
    61   18   59 1
    62   19   60 1
    63   19   61 1
    64   19   62 1
    65   20   63 1
    66   20   64 1
    67   20   65 1
    68   21   66 1
    69   21   67 1
    70   22   68 1
    71   22   69 1
    72   23   70 1
    73   23   71 1
    74   24   72 1
    75   24   73 1
    76   25   74 1
    77   25   75 1
    78   26   76 1
    79   26   77 1
    80   27   78 1
    81   28   79 1
    82   29   80 1
    83   30   81 1
    84   32   82 1
    85   32   83 1
    86   33   84 1
    87   33   85 1
    88   34   86 1
    89   35   87 1
    90   36   88 1
    91   40   89 1
    92   41   90 1
    93   42   91 1
    94   43   92 1
@<TRIPOS>MOLECULE
1a2c_ligand_255
   92    94     0     0     0
SMALL
USER_CHARGES

mmff94s_NoEstat = 123.93
@<TRIPOS>ATOM
      1 C1          9.6781   -0.8835    4.6459 C.ar      1 <0>        -0.0708
      2 C2          8.0683    0.3374    5.9707 C.ar      1 <0>        -0.0872
      3 C3         10.6899   -0.0331    5.0917 C.ar      1 <0>        -0.2241
      4 C4          9.0801    1.1878    6.4165 C.ar      1 <0>        -0.1600
      5 C5          8.3809   -0.6869    5.0914 C.ar      1 <0>        -0.1356
      6 C6         10.3909    1.0026    5.9770 C.ar      1 <0>         0.1290
      7 C7          0.1755   -1.0766    0.1327 C.2       1 <0>         0.6664
      8 C8          2.3785   -0.9757    2.2764 C.2       1 <0>         0.6651
      9 C9          5.2695   -1.7615    3.1198 C.2       1 <0>         0.6454
     10 C10        -1.4451    2.0901    1.4612 C.cat     1 <0>         0.6349
     11 C11         2.4521   -5.3069   -0.2561 C.3       1 <0>        -0.0642
     12 C12         1.2413   -5.9691    0.3982 C.3       1 <0>        -0.0747
     13 C13         1.5734   -2.9393   -0.7647 C.3       1 <0>        -0.0873
     14 C14         1.0938   -4.1277    2.1072 C.3       1 <0>        -0.1371
     15 C15         1.5650   -1.6216    0.0133 C.3       1 <0>         0.0360
     16 C16         2.5597   -3.8106    0.0203 C.3       1 <0>        -0.0720
     17 C17         2.2934   -3.4012    1.4755 C.3       1 <0>         0.1201
     18 C18         1.1411   -5.6363    1.8853 C.3       1 <0>         0.1453
     19 C19         3.8896   -0.8379    6.4377 C.3       1 <0>        -0.0968
     20 C20         2.2599   -2.7349    6.3694 C.3       1 <0>        -0.0986
     21 C21         7.2857   -1.6080    4.6093 C.3       1 <0>        -0.0191
     22 C22        -0.8155    2.0502   -2.2095 C.3       1 <0>        -0.1009
     23 C23        -1.7941    0.8762   -2.3301 C.3       1 <0>        -0.0942
     24 C24         1.9925   -0.8489    4.7298 C.3       1 <0>        -0.0988
     25 C25        -1.0238    2.8078   -0.9000 C.3       1 <0>         0.1966
     26 C26        -2.7214   -1.3050   -1.3187 C.3       1 <0>         0.1128
     27 C27         2.8496   -1.4560    3.6253 C.3       1 <0>         0.0786
     28 C28         6.6222   -1.0920    3.3282 C.3       1 <0>         0.0744
     29 C29         2.4383   -1.2292    6.1562 C.3       1 <0>        -0.0678
     30 C30        -1.7203   -0.1547   -1.1858 C.3       1 <0>         0.1065
     31 N1          2.0322   -1.9586    1.3590 N.am      1 <0>        -0.4315
     32 N2         -1.2039    1.2138    2.5142 N.pl3     1 <0>        -0.8671
     33 N3         -2.3357    3.1423    1.6453 N.pl3     1 <0>        -0.8581
     34 N4         -0.3878   -0.7030   -1.0725 N.am      1 <0>        -0.5687
     35 N5          4.2184   -1.0331    3.6724 N.am      1 <0>        -0.5746
     36 N6         -0.8035    1.9257    0.2214 N.pl3     1 <0>        -0.7533
     37 O1         -0.3509   -1.0007    1.2367 O.2       1 <0>        -0.5843
     38 O2          2.3230    0.2335    2.0409 O.2       1 <0>        -0.6812
     39 O3          5.1476   -2.8360    2.5359 O.2       1 <0>        -0.5788
     40 O4         11.3785    1.8314    6.4133 O.3       1 <0>        -0.4938
     41 O5          2.2611   -6.1715    2.5852 O.3       1 <0>        -0.6030
     42 O6         -2.4752   -2.0231   -2.5206 O.3       1 <0>        -0.5860
     43 O7          7.4509   -1.4094    2.2191 O.3       1 <0>        -0.6021
     44 H1          9.9207   -1.6873    3.9562 H         1 <0>         0.1412
     45 H2          7.0498    0.4890    6.3187 H         1 <0>         0.1451
     46 H3         11.7089   -0.1826    4.7459 H         1 <0>         0.1336
     47 H4          8.8410    1.9923    7.1070 H         1 <0>         0.1567
     48 H5          3.3605   -5.7937    0.1218 H         1 <0>         0.0649
     49 H6          2.4319   -5.4897   -1.3370 H         1 <0>         0.0476
     50 H7          0.3241   -5.6545   -0.1129 H         1 <0>         0.0641
     51 H8          1.3294   -7.0545    0.2691 H         1 <0>         0.0484
     52 H9          0.5754   -3.3919   -0.8000 H         1 <0>         0.0596
     53 H10         1.8977   -2.7914   -1.8003 H         1 <0>         0.0757
     54 H11         1.0807   -3.9085    3.1823 H         1 <0>         0.0782
     55 H12         0.1523   -3.7376    1.7002 H         1 <0>         0.0812
     56 H13         2.2202   -0.8626   -0.4249 H         1 <0>         0.0731
     57 H14         3.5726   -3.4842   -0.2571 H         1 <0>         0.0511
     58 H15         3.1875   -3.5701    2.0864 H         1 <0>         0.0753
     59 H16         0.2435   -6.1003    2.3075 H         1 <0>         0.0427
     60 H17         4.2001   -1.1859    7.4289 H         1 <0>         0.0450
     61 H18         4.0203    0.2482    6.4220 H         1 <0>         0.0406
     62 H19         4.5693   -1.2752    5.6986 H         1 <0>         0.0274
     63 H20         2.8852   -3.3113    5.6789 H         1 <0>         0.0476
     64 H21         2.5335   -3.0185    7.3913 H         1 <0>         0.0170
     65 H22         1.2173   -3.0301    6.2104 H         1 <0>         0.0477
     66 H23         6.5349   -1.7208    5.4029 H         1 <0>         0.0814
     67 H24         7.7154   -2.6065    4.4600 H         1 <0>         0.0685
     68 H25         0.2178    1.6866   -2.2519 H         1 <0>         0.1016
     69 H26        -0.9442    2.7400   -3.0523 H         1 <0>         0.0660
     70 H27        -1.6130    0.3584   -3.2819 H         1 <0>         0.0512
     71 H28        -2.8171    1.2691   -2.3922 H         1 <0>         0.0454
     72 H29         0.9469   -1.1516    4.5828 H         1 <0>         0.0575
     73 H30         2.0032    0.2464    4.6399 H         1 <0>         0.0743
     74 H31        -2.0430    3.2052   -0.8490 H         1 <0>         0.0662
     75 H32        -0.3313    3.6530   -0.8311 H         1 <0>         0.0622
     76 H33        -3.7565   -0.9478   -1.3308 H         1 <0>         0.0321
     77 H34        -2.6144   -2.0048   -0.4820 H         1 <0>         0.0204
     78 H35         2.8203   -2.5449    3.6159 H         1 <0>         0.0749
     79 H36         6.4849   -0.0045    3.3546 H         1 <0>         0.0719
     80 H37         1.7968   -0.7138    6.8816 H         1 <0>         0.0609
     81 H38        -1.9472    0.3883   -0.2591 H         1 <0>         0.1063
     82 H39        -0.5629    0.4299    2.4250 H         1 <0>         0.4792
     83 H40        -1.6694    1.3337    3.4108 H         1 <0>         0.4819
     84 H41        -2.5352    3.8013    0.8967 H         1 <0>         0.4802
     85 H42        -2.8103    3.2810    2.5343 H         1 <0>         0.4826
     86 H43         0.1607   -0.8193   -1.9192 H         1 <0>         0.3101
     87 H44         4.4349   -0.1495    4.1364 H         1 <0>         0.3087
     88 H45        -0.1560    1.1325    0.1403 H         1 <0>         0.4846
     89 H46        12.0516    1.9448    5.7234 H         1 <0>         0.4194
     90 H47         2.7873   -5.4145    2.8873 H         1 <0>         0.4036
     91 H48        -2.8906   -1.5183   -3.2383 H         1 <0>         0.4114
     92 H49         8.3251   -1.6348    2.5769 H         1 <0>         0.3944
@<TRIPOS>BOND
     1    1    3 ar
     2    1    5 ar
     3    2    4 ar
     4    2    5 ar
     5    3    6 ar
     6    4    6 ar
     7    5   21 1
     8    6   40 1
     9    7   15 1
    10    7   34 am
    11    7   37 2
    12    8   27 1
    13    8   31 am
    14    8   38 2
    15    9   28 1
    16    9   35 am
    17    9   39 2
    18   10   32 1
    19   10   33 1
    20   10   36 1
    21   11   12 1
    22   11   16 1
    23   12   18 1
    24   13   15 1
    25   13   16 1
    26   14   17 1
    27   14   18 1
    28   15   31 1
    29   16   17 1
    30   17   31 1
    31   18   41 1
    32   19   29 1
    33   20   29 1
    34   21   28 1
    35   22   23 1
    36   22   25 1
    37   23   30 1
    38   24   27 1
    39   24   29 1
    40   25   36 1
    41   26   30 1
    42   26   42 1
    43   27   35 1
    44   28   43 1
    45   30   34 1
    46    1   44 1
    47    2   45 1
    48    3   46 1
    49    4   47 1
    50   11   48 1
    51   11   49 1
    52   12   50 1
    53   12   51 1
    54   13   52 1
    55   13   53 1
    56   14   54 1
    57   14   55 1
    58   15   56 1
    59   16   57 1
    60   17   58 1
    61   18   59 1
    62   19   60 1
    63   19   61 1
    64   19   62 1
    65   20   63 1
    66   20   64 1
    67   20   65 1
    68   21   66 1
    69   21   67 1
    70   22   68 1
    71   22   69 1
    72   23   70 1
    73   23   71 1
    74   24   72 1
    75   24   73 1
    76   25   74 1
    77   25   75 1
    78   26   76 1
    79   26   77 1
    80   27   78 1
    81   28   79 1
    82   29   80 1
    83   30   81 1
    84   32   82 1
    85   32   83 1
    86   33   84 1
    87   33   85 1
    88   34   86 1
    89   35   87 1
    90   36   88 1
    91   40   89 1
    92   41   90 1
    93   42   91 1
    94   43   92 1
@<TRIPOS>MOLECULE
1a2c_ligand_256
   92    94     0     0     0
SMALL
USER_CHARGES

mmff94s_NoEstat = 124.45
@<TRIPOS>ATOM
      1 C1         -2.2486   -4.7102   -4.4538 C.ar      1 <0>        -0.0708
      2 C2         -2.0907   -2.3688   -5.0284 C.ar      1 <0>        -0.0872
      3 C3         -2.1970   -5.0457   -5.8067 C.ar      1 <0>        -0.2241
      4 C4         -2.0391   -2.7043   -6.3813 C.ar      1 <0>        -0.1600
      5 C5         -2.1947   -3.3763   -4.0828 C.ar      1 <0>        -0.1356
      6 C6         -2.0922   -4.0427   -6.7705 C.ar      1 <0>         0.1290
      7 C7         -0.0512   -1.0561    0.2993 C.2       1 <0>         0.6664
      8 C8         -1.8469   -3.0457    2.1630 C.2       1 <0>         0.6651
      9 C9         -3.6974   -2.0123   -0.8263 C.2       1 <0>         0.6454
     10 C10        -3.3294    2.0808   -3.5565 C.cat     1 <0>         0.6349
     11 C11         2.5186   -3.1911    0.6823 C.3       1 <0>        -0.0642
     12 C12         2.4580   -4.6414    0.2376 C.3       1 <0>        -0.0747
     13 C13         1.4874   -1.4827    2.2418 C.3       1 <0>        -0.0873
     14 C14         0.4946   -5.0934    1.7133 C.3       1 <0>        -0.1371
     15 C15         0.0412   -1.4176    1.7503 C.3       1 <0>         0.0360
     16 C16         1.8865   -2.9529    2.0632 C.3       1 <0>        -0.0720
     17 C17         0.5665   -3.7001    2.3454 C.3       1 <0>         0.1201
     18 C18         1.0248   -5.1525    0.2868 C.3       1 <0>         0.1453
     19 C19        -3.4345   -0.1597    3.7904 C.3       1 <0>        -0.0968
     20 C20        -3.1391   -2.5257    4.5483 C.3       1 <0>        -0.0986
     21 C21        -2.2499   -3.0131   -2.6180 C.3       1 <0>        -0.0191
     22 C22        -1.0374    2.7415   -0.6235 C.3       1 <0>        -0.1009
     23 C23         0.2513    2.2726   -1.3090 C.3       1 <0>        -0.0942
     24 C24        -4.1436   -2.0954    2.2850 C.3       1 <0>        -0.0988
     25 C25        -2.2684    2.1304   -1.2894 C.3       1 <0>         0.1966
     26 C26         1.7383    0.3016   -2.0469 C.3       1 <0>         0.1128
     27 C27        -2.8325   -2.1090    1.5076 C.3       1 <0>         0.0786
     28 C28        -3.6869   -2.7967   -2.1325 C.3       1 <0>         0.0744
     29 C29        -4.0154   -1.5731    3.7302 C.3       1 <0>        -0.0678
     30 C30         0.4555    0.7445   -1.3388 C.3       1 <0>         0.1065
     31 N1         -0.4979   -2.7598    1.9615 N.am      1 <0>        -0.4315
     32 N2         -3.3390    2.4766   -4.8899 N.pl3     1 <0>        -0.8671
     33 N3         -4.3382    1.2447   -3.0902 N.pl3     1 <0>        -0.8581
     34 N4          0.4455    0.1980   -0.0008 N.am      1 <0>        -0.5687
     35 N5         -2.9650   -2.6361    0.1813 N.am      1 <0>        -0.5746
     36 N6         -2.3186    2.5130   -2.6805 N.pl3     1 <0>        -0.7533
     37 O1         -0.5362   -1.8555   -0.4928 O.2       1 <0>        -0.5843
     38 O2         -2.2659   -3.9924    2.8322 O.2       1 <0>        -0.6812
     39 O3         -4.3065   -0.9527   -0.6974 O.2       1 <0>        -0.5788
     40 O4         -2.0402   -4.3703   -8.0906 O.3       1 <0>        -0.4938
     41 O5          0.9879   -6.5072   -0.1510 O.3       1 <0>        -0.6030
     42 O6          2.8703    0.8436   -1.3793 O.3       1 <0>        -0.5860
     43 O7         -4.2899   -4.0610   -1.8967 O.3       1 <0>        -0.6021
     44 H1         -2.3303   -5.4984   -3.7103 H         1 <0>         0.1412
     45 H2         -2.0483   -1.3233   -4.7344 H         1 <0>         0.1451
     46 H3         -2.2386   -6.0899   -6.1035 H         1 <0>         0.1336
     47 H4         -1.9565   -1.9184   -7.1275 H         1 <0>         0.1567
     48 H5          3.5627   -2.8549    0.7003 H         1 <0>         0.0649
     49 H6          2.0259   -2.5829   -0.0837 H         1 <0>         0.0476
     50 H7          2.8567   -4.7427   -0.7790 H         1 <0>         0.0641
     51 H8          3.1032   -5.2618    0.8729 H         1 <0>         0.0484
     52 H9          2.1569   -0.7868    1.7257 H         1 <0>         0.0596
     53 H10         1.5124   -1.2395    3.3116 H         1 <0>         0.0757
     54 H11         1.0921   -5.7802    2.3299 H         1 <0>         0.0782
     55 H12        -0.5175   -5.5090    1.7393 H         1 <0>         0.0812
     56 H13        -0.5378   -0.6778    2.3126 H         1 <0>         0.0731
     57 H14         2.6304   -3.2407    2.8169 H         1 <0>         0.0511
     58 H15         0.4523   -3.8218    3.4319 H         1 <0>         0.0753
     59 H16         0.3841   -4.5700   -0.3844 H         1 <0>         0.0427
     60 H17        -3.2863    0.1550    4.8292 H         1 <0>         0.0450
     61 H18        -4.1066    0.5680    3.3260 H         1 <0>         0.0406
     62 H19        -2.4667   -0.1061    3.2804 H         1 <0>         0.0274
     63 H20        -2.1236   -2.5806    4.1412 H         1 <0>         0.0476
     64 H21        -3.0691   -2.1929    5.5894 H         1 <0>         0.0170
     65 H22        -3.5594   -3.5370    4.5502 H         1 <0>         0.0477
     66 H23        -1.6549   -2.1055   -2.4495 H         1 <0>         0.0814
     67 H24        -1.7526   -3.8070   -2.0467 H         1 <0>         0.0685
     68 H25        -1.0263    2.4588    0.4356 H         1 <0>         0.1016
     69 H26        -1.1105    3.8350   -0.6596 H         1 <0>         0.0660
     70 H27         1.1110    2.7323   -0.8028 H         1 <0>         0.0512
     71 H28         0.2685    2.6560   -2.3373 H         1 <0>         0.0454
     72 H29        -4.5642   -3.1100    2.3009 H         1 <0>         0.0575
     73 H30        -4.8775   -1.4748    1.7520 H         1 <0>         0.0743
     74 H31        -3.1804    2.4738   -0.7898 H         1 <0>         0.0662
     75 H32        -2.2399    1.0381   -1.2201 H         1 <0>         0.0622
     76 H33         1.7614    0.6251   -3.0928 H         1 <0>         0.0321
     77 H34         1.8289   -0.7905   -2.0281 H         1 <0>         0.0204
     78 H35        -2.3644   -1.1272    1.4485 H         1 <0>         0.0749
     79 H36        -4.2885   -2.2626   -2.8775 H         1 <0>         0.0719
     80 H37        -5.0090   -1.5561    4.1946 H         1 <0>         0.0609
     81 H38        -0.3978    0.3245   -1.8868 H         1 <0>         0.1063
     82 H39        -2.6237    3.0881   -5.2742 H         1 <0>         0.4792
     83 H40        -4.0716    2.1635   -5.5226 H         1 <0>         0.4819
     84 H41        -4.3615    0.9362   -2.1213 H         1 <0>         0.4802
     85 H42        -5.0788    0.9188   -3.7066 H         1 <0>         0.4826
     86 H43         0.8216    0.7626    0.7549 H         1 <0>         0.3101
     87 H44        -2.4970   -3.5171   -0.0370 H         1 <0>         0.3087
     88 H45        -1.5986    3.1289   -3.0773 H         1 <0>         0.4846
     89 H46        -2.5628   -5.1704   -8.2594 H         1 <0>         0.4194
     90 H47         1.8515   -6.8926    0.0654 H         1 <0>         0.4036
     91 H48         2.9636    1.7601   -1.6856 H         1 <0>         0.4114
     92 H49        -3.7363   -4.7236   -2.3413 H         1 <0>         0.3944
@<TRIPOS>BOND
     1    1    3 ar
     2    1    5 ar
     3    2    4 ar
     4    2    5 ar
     5    3    6 ar
     6    4    6 ar
     7    5   21 1
     8    6   40 1
     9    7   15 1
    10    7   34 am
    11    7   37 2
    12    8   27 1
    13    8   31 am
    14    8   38 2
    15    9   28 1
    16    9   35 am
    17    9   39 2
    18   10   32 1
    19   10   33 1
    20   10   36 1
    21   11   12 1
    22   11   16 1
    23   12   18 1
    24   13   15 1
    25   13   16 1
    26   14   17 1
    27   14   18 1
    28   15   31 1
    29   16   17 1
    30   17   31 1
    31   18   41 1
    32   19   29 1
    33   20   29 1
    34   21   28 1
    35   22   23 1
    36   22   25 1
    37   23   30 1
    38   24   27 1
    39   24   29 1
    40   25   36 1
    41   26   30 1
    42   26   42 1
    43   27   35 1
    44   28   43 1
    45   30   34 1
    46    1   44 1
    47    2   45 1
    48    3   46 1
    49    4   47 1
    50   11   48 1
    51   11   49 1
    52   12   50 1
    53   12   51 1
    54   13   52 1
    55   13   53 1
    56   14   54 1
    57   14   55 1
    58   15   56 1
    59   16   57 1
    60   17   58 1
    61   18   59 1
    62   19   60 1
    63   19   61 1
    64   19   62 1
    65   20   63 1
    66   20   64 1
    67   20   65 1
    68   21   66 1
    69   21   67 1
    70   22   68 1
    71   22   69 1
    72   23   70 1
    73   23   71 1
    74   24   72 1
    75   24   73 1
    76   25   74 1
    77   25   75 1
    78   26   76 1
    79   26   77 1
    80   27   78 1
    81   28   79 1
    82   29   80 1
    83   30   81 1
    84   32   82 1
    85   32   83 1
    86   33   84 1
    87   33   85 1
    88   34   86 1
    89   35   87 1
    90   36   88 1
    91   40   89 1
    92   41   90 1
    93   42   91 1
    94   43   92 1
@<TRIPOS>MOLECULE
1a2c_ligand_257
   92    94     0     0     0
SMALL
USER_CHARGES

mmff94s_NoEstat = 124.49
@<TRIPOS>ATOM
      1 C1         -6.0181   -4.0270   -0.0902 C.ar      1 <0>        -0.0708
      2 C2         -6.7982   -3.9708   -2.3761 C.ar      1 <0>        -0.0872
      3 C3         -7.3335   -3.9199    0.3613 C.ar      1 <0>        -0.2241
      4 C4         -8.1136   -3.8637   -1.9246 C.ar      1 <0>        -0.1600
      5 C5         -5.7681   -4.0510   -1.4528 C.ar      1 <0>        -0.1356
      6 C6         -8.3813   -3.8383   -0.5559 C.ar      1 <0>         0.1290
      7 C7         -0.0512   -1.0561    0.2993 C.2       1 <0>         0.6664
      8 C8         -1.8469   -3.0457    2.1630 C.2       1 <0>         0.6651
      9 C9         -3.6974   -2.0123   -0.8263 C.2       1 <0>         0.6454
     10 C10        -2.6672    5.4277   -0.3386 C.cat     1 <0>         0.6349
     11 C11         2.5186   -3.1911    0.6823 C.3       1 <0>        -0.0642
     12 C12         2.4580   -4.6414    0.2376 C.3       1 <0>        -0.0747
     13 C13         1.4874   -1.4827    2.2418 C.3       1 <0>        -0.0873
     14 C14         0.4946   -5.0934    1.7133 C.3       1 <0>        -0.1371
     15 C15         0.0412   -1.4176    1.7503 C.3       1 <0>         0.0360
     16 C16         1.8865   -2.9529    2.0632 C.3       1 <0>        -0.0720
     17 C17         0.5665   -3.7001    2.3454 C.3       1 <0>         0.1201
     18 C18         1.0248   -5.1525    0.2868 C.3       1 <0>         0.1453
     19 C19        -3.4345   -0.1597    3.7904 C.3       1 <0>        -0.0968
     20 C20        -3.1391   -2.5257    4.5483 C.3       1 <0>        -0.0986
     21 C21        -4.3440   -4.1677   -1.9416 C.3       1 <0>        -0.0191
     22 C22        -1.8968    1.7896   -1.0188 C.3       1 <0>        -0.1009
     23 C23        -0.4337    2.0012   -1.4250 C.3       1 <0>        -0.0942
     24 C24        -4.1436   -2.0954    2.2850 C.3       1 <0>        -0.0988
     25 C25        -2.7062    3.0733   -1.1890 C.3       1 <0>         0.1966
     26 C26         1.9058    0.9774   -1.7696 C.3       1 <0>         0.1128
     27 C27        -2.8325   -2.1090    1.5076 C.3       1 <0>         0.0786
     28 C28        -3.6869   -2.7967   -2.1325 C.3       1 <0>         0.0744
     29 C29        -4.0154   -1.5731    3.7302 C.3       1 <0>        -0.0678
     30 C30         0.4555    0.7445   -1.3388 C.3       1 <0>         0.1065
     31 N1         -0.4979   -2.7598    1.9615 N.am      1 <0>        -0.4315
     32 N2         -2.0958    6.4072    0.4670 N.pl3     1 <0>        -0.8671
     33 N3         -3.7703    5.7519   -1.1209 N.pl3     1 <0>        -0.8581
     34 N4          0.4455    0.1980   -0.0008 N.am      1 <0>        -0.5687
     35 N5         -2.9650   -2.6361    0.1813 N.am      1 <0>        -0.5746
     36 N6         -2.1460    4.1226   -0.3710 N.pl3     1 <0>        -0.7533
     37 O1         -0.5362   -1.8555   -0.4928 O.2       1 <0>        -0.5843
     38 O2         -2.2659   -3.9924    2.8322 O.2       1 <0>        -0.6812
     39 O3         -4.3065   -0.9527   -0.6974 O.2       1 <0>        -0.5788
     40 O4         -9.6650   -3.7354   -0.1152 O.3       1 <0>        -0.4938
     41 O5          0.9879   -6.5072   -0.1510 O.3       1 <0>        -0.6030
     42 O6          2.5087    1.9525   -0.9290 O.3       1 <0>        -0.5860
     43 O7         -4.4245   -2.0617   -3.0984 O.3       1 <0>        -0.6021
     44 H1         -5.2085   -4.0899    0.6318 H         1 <0>         0.1412
     45 H2         -6.5990   -3.9902   -3.4444 H         1 <0>         0.1451
     46 H3         -7.5355   -3.9007    1.4286 H         1 <0>         0.1336
     47 H4         -8.9257   -3.8014   -2.6441 H         1 <0>         0.1567
     48 H5          3.5627   -2.8549    0.7003 H         1 <0>         0.0649
     49 H6          2.0259   -2.5829   -0.0837 H         1 <0>         0.0476
     50 H7          2.8567   -4.7427   -0.7790 H         1 <0>         0.0641
     51 H8          3.1032   -5.2618    0.8729 H         1 <0>         0.0484
     52 H9          2.1569   -0.7868    1.7257 H         1 <0>         0.0596
     53 H10         1.5124   -1.2395    3.3116 H         1 <0>         0.0757
     54 H11         1.0921   -5.7802    2.3299 H         1 <0>         0.0782
     55 H12        -0.5175   -5.5090    1.7393 H         1 <0>         0.0812
     56 H13        -0.5378   -0.6778    2.3126 H         1 <0>         0.0731
     57 H14         2.6304   -3.2407    2.8169 H         1 <0>         0.0511
     58 H15         0.4523   -3.8218    3.4319 H         1 <0>         0.0753
     59 H16         0.3841   -4.5700   -0.3844 H         1 <0>         0.0427
     60 H17        -3.2863    0.1550    4.8292 H         1 <0>         0.0450
     61 H18        -4.1066    0.5680    3.3260 H         1 <0>         0.0406
     62 H19        -2.4667   -0.1061    3.2804 H         1 <0>         0.0274
     63 H20        -2.1236   -2.5806    4.1412 H         1 <0>         0.0476
     64 H21        -3.0691   -2.1929    5.5894 H         1 <0>         0.0170
     65 H22        -3.5594   -3.5370    4.5502 H         1 <0>         0.0477
     66 H23        -4.3326   -4.7255   -2.8875 H         1 <0>         0.0814
     67 H24        -3.7827   -4.7813   -1.2258 H         1 <0>         0.0685
     68 H25        -2.3478    0.9988   -1.6296 H         1 <0>         0.1016
     69 H26        -1.9571    1.4582    0.0248 H         1 <0>         0.0660
     70 H27         0.0021    2.7844   -0.7898 H         1 <0>         0.0512
     71 H28        -0.4008    2.3932   -2.4497 H         1 <0>         0.0454
     72 H29        -4.5642   -3.1100    2.3009 H         1 <0>         0.0575
     73 H30        -4.8775   -1.4748    1.7520 H         1 <0>         0.0743
     74 H31        -3.7481    2.9073   -0.8955 H         1 <0>         0.0662
     75 H32        -2.7006    3.3948   -2.2356 H         1 <0>         0.0622
     76 H33         1.9749    1.3199   -2.8074 H         1 <0>         0.0321
     77 H34         2.4858    0.0519   -1.6791 H         1 <0>         0.0204
     78 H35        -2.3644   -1.1272    1.4485 H         1 <0>         0.0749
     79 H36        -2.6537   -2.8903   -2.4873 H         1 <0>         0.0719
     80 H37        -5.0090   -1.5561    4.1946 H         1 <0>         0.0609
     81 H38         0.0149    0.0012   -2.0158 H         1 <0>         0.1063
     82 H39        -1.2903    6.2156    1.0567 H         1 <0>         0.4792
     83 H40        -2.4745    7.3512    0.4899 H         1 <0>         0.4819
     84 H41        -4.2125    5.0601   -1.7212 H         1 <0>         0.4802
     85 H42        -4.1632    6.6901   -1.1140 H         1 <0>         0.4826
     86 H43         0.8216    0.7626    0.7549 H         1 <0>         0.3101
     87 H44        -2.4970   -3.5171   -0.0370 H         1 <0>         0.3087
     88 H45        -1.3309    3.9380    0.2262 H         1 <0>         0.4846
     89 H46        -9.6952   -3.2429    0.7204 H         1 <0>         0.4194
     90 H47         1.8515   -6.8926    0.0654 H         1 <0>         0.4036
     91 H48         2.2238    2.8203   -1.2580 H         1 <0>         0.4114
     92 H49        -4.9875   -2.6994   -3.5670 H         1 <0>         0.3944
@<TRIPOS>BOND
     1    1    3 ar
     2    1    5 ar
     3    2    4 ar
     4    2    5 ar
     5    3    6 ar
     6    4    6 ar
     7    5   21 1
     8    6   40 1
     9    7   15 1
    10    7   34 am
    11    7   37 2
    12    8   27 1
    13    8   31 am
    14    8   38 2
    15    9   28 1
    16    9   35 am
    17    9   39 2
    18   10   32 1
    19   10   33 1
    20   10   36 1
    21   11   12 1
    22   11   16 1
    23   12   18 1
    24   13   15 1
    25   13   16 1
    26   14   17 1
    27   14   18 1
    28   15   31 1
    29   16   17 1
    30   17   31 1
    31   18   41 1
    32   19   29 1
    33   20   29 1
    34   21   28 1
    35   22   23 1
    36   22   25 1
    37   23   30 1
    38   24   27 1
    39   24   29 1
    40   25   36 1
    41   26   30 1
    42   26   42 1
    43   27   35 1
    44   28   43 1
    45   30   34 1
    46    1   44 1
    47    2   45 1
    48    3   46 1
    49    4   47 1
    50   11   48 1
    51   11   49 1
    52   12   50 1
    53   12   51 1
    54   13   52 1
    55   13   53 1
    56   14   54 1
    57   14   55 1
    58   15   56 1
    59   16   57 1
    60   17   58 1
    61   18   59 1
    62   19   60 1
    63   19   61 1
    64   19   62 1
    65   20   63 1
    66   20   64 1
    67   20   65 1
    68   21   66 1
    69   21   67 1
    70   22   68 1
    71   22   69 1
    72   23   70 1
    73   23   71 1
    74   24   72 1
    75   24   73 1
    76   25   74 1
    77   25   75 1
    78   26   76 1
    79   26   77 1
    80   27   78 1
    81   28   79 1
    82   29   80 1
    83   30   81 1
    84   32   82 1
    85   32   83 1
    86   33   84 1
    87   33   85 1
    88   34   86 1
    89   35   87 1
    90   36   88 1
    91   40   89 1
    92   41   90 1
    93   42   91 1
    94   43   92 1
@<TRIPOS>MOLECULE
1a2c_ligand_258
   92    94     0     0     0
SMALL
USER_CHARGES

mmff94s_NoEstat = 124.55
@<TRIPOS>ATOM
      1 C1         -6.3367   -3.9612   -2.1756 C.ar      1 <0>        -0.0708
      2 C2         -6.3112   -1.7395   -1.2266 C.ar      1 <0>        -0.0872
      3 C3         -7.4425   -4.2843   -1.3892 C.ar      1 <0>        -0.2241
      4 C4         -7.4170   -2.0626   -0.4403 C.ar      1 <0>        -0.1600
      5 C5         -5.7859   -2.6931   -2.0838 C.ar      1 <0>        -0.1356
      6 C6         -7.9827   -3.3351   -0.5215 C.ar      1 <0>         0.1290
      7 C7         -0.0512   -1.0561    0.2993 C.2       1 <0>         0.6664
      8 C8         -1.8469   -3.0457    2.1630 C.2       1 <0>         0.6651
      9 C9         -3.1350   -1.8416   -0.9503 C.2       1 <0>         0.6454
     10 C10        -2.7746    6.0237    0.0845 C.cat     1 <0>         0.6349
     11 C11         2.5186   -3.1911    0.6823 C.3       1 <0>        -0.0642
     12 C12         2.4580   -4.6414    0.2376 C.3       1 <0>        -0.0747
     13 C13         1.4874   -1.4827    2.2418 C.3       1 <0>        -0.0873
     14 C14         0.4946   -5.0934    1.7133 C.3       1 <0>        -0.1371
     15 C15         0.0412   -1.4176    1.7503 C.3       1 <0>         0.0360
     16 C16         1.8865   -2.9529    2.0632 C.3       1 <0>        -0.0720
     17 C17         0.5665   -3.7001    2.3454 C.3       1 <0>         0.1201
     18 C18         1.0248   -5.1525    0.2868 C.3       1 <0>         0.1453
     19 C19        -3.4345   -0.1597    3.7904 C.3       1 <0>        -0.0968
     20 C20        -3.1391   -2.5257    4.5483 C.3       1 <0>        -0.0986
     21 C21        -4.5892   -2.3431   -2.9356 C.3       1 <0>        -0.0191
     22 C22        -1.0374    2.7415   -0.6235 C.3       1 <0>        -0.1009
     23 C23         0.2513    2.2726   -1.3090 C.3       1 <0>        -0.0942
     24 C24        -4.1436   -2.0954    2.2850 C.3       1 <0>        -0.0988
     25 C25        -1.1758    4.2607   -0.6924 C.3       1 <0>         0.1966
     26 C26         1.7383    0.3016   -2.0469 C.3       1 <0>         0.1128
     27 C27        -2.8325   -2.1090    1.5076 C.3       1 <0>         0.0786
     28 C28        -3.2671   -2.6599   -2.2288 C.3       1 <0>         0.0744
     29 C29        -4.0154   -1.5731    3.7302 C.3       1 <0>        -0.0678
     30 C30         0.4555    0.7445   -1.3388 C.3       1 <0>         0.1065
     31 N1         -0.4979   -2.7598    1.9615 N.am      1 <0>        -0.4315
     32 N2         -3.9558    6.3783    0.7278 N.pl3     1 <0>        -0.8671
     33 N3         -1.9667    7.0223   -0.4484 N.pl3     1 <0>        -0.8581
     34 N4          0.4455    0.1980   -0.0008 N.am      1 <0>        -0.5687
     35 N5         -2.9650   -2.6361    0.1813 N.am      1 <0>        -0.5746
     36 N6         -2.3904    4.6766   -0.0323 N.pl3     1 <0>        -0.7533
     37 O1         -0.5362   -1.8555   -0.4928 O.2       1 <0>        -0.5843
     38 O2         -2.2659   -3.9924    2.8322 O.2       1 <0>        -0.6812
     39 O3         -3.1903   -0.6139   -0.9436 O.2       1 <0>        -0.5788
     40 O4         -9.0628   -3.6499    0.2446 O.3       1 <0>        -0.4938
     41 O5          0.9879   -6.5072   -0.1510 O.3       1 <0>        -0.6030
     42 O6          2.8703    0.8436   -1.3793 O.3       1 <0>        -0.5860
     43 O7         -2.1901   -2.3175   -3.0891 O.3       1 <0>        -0.6021
     44 H1         -5.9228   -4.7073   -2.8484 H         1 <0>         0.1412
     45 H2         -5.8771   -0.7454   -1.1569 H         1 <0>         0.1451
     46 H3         -7.8787   -5.2770   -1.4571 H         1 <0>         0.1336
     47 H4         -7.8339   -1.3184    0.2332 H         1 <0>         0.1567
     48 H5          3.5627   -2.8549    0.7003 H         1 <0>         0.0649
     49 H6          2.0259   -2.5829   -0.0837 H         1 <0>         0.0476
     50 H7          2.8567   -4.7427   -0.7790 H         1 <0>         0.0641
     51 H8          3.1032   -5.2618    0.8729 H         1 <0>         0.0484
     52 H9          2.1569   -0.7868    1.7257 H         1 <0>         0.0596
     53 H10         1.5124   -1.2395    3.3116 H         1 <0>         0.0757
     54 H11         1.0921   -5.7802    2.3299 H         1 <0>         0.0782
     55 H12        -0.5175   -5.5090    1.7393 H         1 <0>         0.0812
     56 H13        -0.5378   -0.6778    2.3126 H         1 <0>         0.0731
     57 H14         2.6304   -3.2407    2.8169 H         1 <0>         0.0511
     58 H15         0.4523   -3.8218    3.4319 H         1 <0>         0.0753
     59 H16         0.3841   -4.5700   -0.3844 H         1 <0>         0.0427
     60 H17        -3.2863    0.1550    4.8292 H         1 <0>         0.0450
     61 H18        -4.1066    0.5680    3.3260 H         1 <0>         0.0406
     62 H19        -2.4667   -0.1061    3.2804 H         1 <0>         0.0274
     63 H20        -2.1236   -2.5806    4.1412 H         1 <0>         0.0476
     64 H21        -3.0691   -2.1929    5.5894 H         1 <0>         0.0170
     65 H22        -3.5594   -3.5370    4.5502 H         1 <0>         0.0477
     66 H23        -4.6313   -1.2767   -3.1948 H         1 <0>         0.0814
     67 H24        -4.6716   -2.8853   -3.8860 H         1 <0>         0.0685
     68 H25        -1.9092    2.2808   -1.1025 H         1 <0>         0.1016
     69 H26        -1.0467    2.4234    0.4259 H         1 <0>         0.0660
     70 H27         1.1110    2.7323   -0.8028 H         1 <0>         0.0512
     71 H28         0.2685    2.6560   -2.3373 H         1 <0>         0.0454
     72 H29        -4.5642   -3.1100    2.3009 H         1 <0>         0.0575
     73 H30        -4.8775   -1.4748    1.7520 H         1 <0>         0.0743
     74 H31        -1.2027    4.5928   -1.7356 H         1 <0>         0.0662
     75 H32        -0.3220    4.7463   -0.2087 H         1 <0>         0.0622
     76 H33         1.7614    0.6251   -3.0928 H         1 <0>         0.0321
     77 H34         1.8289   -0.7905   -2.0281 H         1 <0>         0.0204
     78 H35        -2.3644   -1.1272    1.4485 H         1 <0>         0.0749
     79 H36        -3.1858   -3.7255   -1.9837 H         1 <0>         0.0719
     80 H37        -5.0090   -1.5561    4.1946 H         1 <0>         0.0609
     81 H38        -0.3978    0.3245   -1.8868 H         1 <0>         0.1063
     82 H39        -4.5782    5.6828    1.1306 H         1 <0>         0.4792
     83 H40        -4.2329    7.3536    0.8111 H         1 <0>         0.4819
     84 H41        -1.0966    6.7983   -0.9251 H         1 <0>         0.4802
     85 H42        -2.2244    8.0035   -0.3744 H         1 <0>         0.4826
     86 H43         0.8216    0.7626    0.7549 H         1 <0>         0.3101
     87 H44        -2.9331   -3.6495    0.0592 H         1 <0>         0.3087
     88 H45        -3.0238    3.9804    0.3791 H         1 <0>         0.4846
     89 H46        -9.0417   -4.5898    0.4855 H         1 <0>         0.4194
     90 H47         1.8515   -6.8926    0.0654 H         1 <0>         0.4036
     91 H48         2.9636    1.7601   -1.6856 H         1 <0>         0.4114
     92 H49        -2.5631   -2.2171   -3.9801 H         1 <0>         0.3944
@<TRIPOS>BOND
     1    1    3 ar
     2    1    5 ar
     3    2    4 ar
     4    2    5 ar
     5    3    6 ar
     6    4    6 ar
     7    5   21 1
     8    6   40 1
     9    7   15 1
    10    7   34 am
    11    7   37 2
    12    8   27 1
    13    8   31 am
    14    8   38 2
    15    9   28 1
    16    9   35 am
    17    9   39 2
    18   10   32 1
    19   10   33 1
    20   10   36 1
    21   11   12 1
    22   11   16 1
    23   12   18 1
    24   13   15 1
    25   13   16 1
    26   14   17 1
    27   14   18 1
    28   15   31 1
    29   16   17 1
    30   17   31 1
    31   18   41 1
    32   19   29 1
    33   20   29 1
    34   21   28 1
    35   22   23 1
    36   22   25 1
    37   23   30 1
    38   24   27 1
    39   24   29 1
    40   25   36 1
    41   26   30 1
    42   26   42 1
    43   27   35 1
    44   28   43 1
    45   30   34 1
    46    1   44 1
    47    2   45 1
    48    3   46 1
    49    4   47 1
    50   11   48 1
    51   11   49 1
    52   12   50 1
    53   12   51 1
    54   13   52 1
    55   13   53 1
    56   14   54 1
    57   14   55 1
    58   15   56 1
    59   16   57 1
    60   17   58 1
    61   18   59 1
    62   19   60 1
    63   19   61 1
    64   19   62 1
    65   20   63 1
    66   20   64 1
    67   20   65 1
    68   21   66 1
    69   21   67 1
    70   22   68 1
    71   22   69 1
    72   23   70 1
    73   23   71 1
    74   24   72 1
    75   24   73 1
    76   25   74 1
    77   25   75 1
    78   26   76 1
    79   26   77 1
    80   27   78 1
    81   28   79 1
    82   29   80 1
    83   30   81 1
    84   32   82 1
    85   32   83 1
    86   33   84 1
    87   33   85 1
    88   34   86 1
    89   35   87 1
    90   36   88 1
    91   40   89 1
    92   41   90 1
    93   42   91 1
    94   43   92 1
@<TRIPOS>MOLECULE
1a2c_ligand_259
   92    94     0     0     0
SMALL
USER_CHARGES

mmff94s_NoEstat = 124.60
@<TRIPOS>ATOM
      1 C1         -6.0181   -4.0270   -0.0902 C.ar      1 <0>        -0.0708
      2 C2         -6.7982   -3.9708   -2.3761 C.ar      1 <0>        -0.0872
      3 C3         -7.3335   -3.9199    0.3613 C.ar      1 <0>        -0.2241
      4 C4         -8.1136   -3.8637   -1.9246 C.ar      1 <0>        -0.1600
      5 C5         -5.7681   -4.0510   -1.4528 C.ar      1 <0>        -0.1356
      6 C6         -8.3813   -3.8383   -0.5559 C.ar      1 <0>         0.1290
      7 C7         -0.0512   -1.0561    0.2993 C.2       1 <0>         0.6664
      8 C8         -1.8469   -3.0457    2.1630 C.2       1 <0>         0.6651
      9 C9         -3.6974   -2.0123   -0.8263 C.2       1 <0>         0.6454
     10 C10        -3.3294    2.0808   -3.5565 C.cat     1 <0>         0.6349
     11 C11         2.5186   -3.1911    0.6823 C.3       1 <0>        -0.0642
     12 C12         2.4580   -4.6414    0.2376 C.3       1 <0>        -0.0747
     13 C13         1.4874   -1.4827    2.2418 C.3       1 <0>        -0.0873
     14 C14         0.4946   -5.0934    1.7133 C.3       1 <0>        -0.1371
     15 C15         0.0412   -1.4176    1.7503 C.3       1 <0>         0.0360
     16 C16         1.8865   -2.9529    2.0632 C.3       1 <0>        -0.0720
     17 C17         0.5665   -3.7001    2.3454 C.3       1 <0>         0.1201
     18 C18         1.0248   -5.1525    0.2868 C.3       1 <0>         0.1453
     19 C19        -3.4345   -0.1597    3.7904 C.3       1 <0>        -0.0968
     20 C20        -3.1391   -2.5257    4.5483 C.3       1 <0>        -0.0986
     21 C21        -4.3440   -4.1677   -1.9416 C.3       1 <0>        -0.0191
     22 C22        -1.0374    2.7415   -0.6235 C.3       1 <0>        -0.1009
     23 C23         0.2513    2.2726   -1.3090 C.3       1 <0>        -0.0942
     24 C24        -4.1436   -2.0954    2.2850 C.3       1 <0>        -0.0988
     25 C25        -2.2684    2.1304   -1.2894 C.3       1 <0>         0.1966
     26 C26         1.7383    0.3016   -2.0469 C.3       1 <0>         0.1128
     27 C27        -2.8325   -2.1090    1.5076 C.3       1 <0>         0.0786
     28 C28        -3.6869   -2.7967   -2.1325 C.3       1 <0>         0.0744
     29 C29        -4.0154   -1.5731    3.7302 C.3       1 <0>        -0.0678
     30 C30         0.4555    0.7445   -1.3388 C.3       1 <0>         0.1065
     31 N1         -0.4979   -2.7598    1.9615 N.am      1 <0>        -0.4315
     32 N2         -3.3390    2.4766   -4.8899 N.pl3     1 <0>        -0.8671
     33 N3         -4.3382    1.2447   -3.0902 N.pl3     1 <0>        -0.8581
     34 N4          0.4455    0.1980   -0.0008 N.am      1 <0>        -0.5687
     35 N5         -2.9650   -2.6361    0.1813 N.am      1 <0>        -0.5746
     36 N6         -2.3186    2.5130   -2.6805 N.pl3     1 <0>        -0.7533
     37 O1         -0.5362   -1.8555   -0.4928 O.2       1 <0>        -0.5843
     38 O2         -2.2659   -3.9924    2.8322 O.2       1 <0>        -0.6812
     39 O3         -4.3065   -0.9527   -0.6974 O.2       1 <0>        -0.5788
     40 O4         -9.6650   -3.7354   -0.1152 O.3       1 <0>        -0.4938
     41 O5          0.9879   -6.5072   -0.1510 O.3       1 <0>        -0.6030
     42 O6          2.8703    0.8436   -1.3793 O.3       1 <0>        -0.5860
     43 O7         -4.4245   -2.0617   -3.0984 O.3       1 <0>        -0.6021
     44 H1         -5.2085   -4.0899    0.6318 H         1 <0>         0.1412
     45 H2         -6.5990   -3.9902   -3.4444 H         1 <0>         0.1451
     46 H3         -7.5355   -3.9007    1.4286 H         1 <0>         0.1336
     47 H4         -8.9257   -3.8014   -2.6441 H         1 <0>         0.1567
     48 H5          3.5627   -2.8549    0.7003 H         1 <0>         0.0649
     49 H6          2.0259   -2.5829   -0.0837 H         1 <0>         0.0476
     50 H7          2.8567   -4.7427   -0.7790 H         1 <0>         0.0641
     51 H8          3.1032   -5.2618    0.8729 H         1 <0>         0.0484
     52 H9          2.1569   -0.7868    1.7257 H         1 <0>         0.0596
     53 H10         1.5124   -1.2395    3.3116 H         1 <0>         0.0757
     54 H11         1.0921   -5.7802    2.3299 H         1 <0>         0.0782
     55 H12        -0.5175   -5.5090    1.7393 H         1 <0>         0.0812
     56 H13        -0.5378   -0.6778    2.3126 H         1 <0>         0.0731
     57 H14         2.6304   -3.2407    2.8169 H         1 <0>         0.0511
     58 H15         0.4523   -3.8218    3.4319 H         1 <0>         0.0753
     59 H16         0.3841   -4.5700   -0.3844 H         1 <0>         0.0427
     60 H17        -3.2863    0.1550    4.8292 H         1 <0>         0.0450
     61 H18        -4.1066    0.5680    3.3260 H         1 <0>         0.0406
     62 H19        -2.4667   -0.1061    3.2804 H         1 <0>         0.0274
     63 H20        -2.1236   -2.5806    4.1412 H         1 <0>         0.0476
     64 H21        -3.0691   -2.1929    5.5894 H         1 <0>         0.0170
     65 H22        -3.5594   -3.5370    4.5502 H         1 <0>         0.0477
     66 H23        -4.3326   -4.7255   -2.8875 H         1 <0>         0.0814
     67 H24        -3.7827   -4.7813   -1.2258 H         1 <0>         0.0685
     68 H25        -1.0263    2.4588    0.4356 H         1 <0>         0.1016
     69 H26        -1.1105    3.8350   -0.6596 H         1 <0>         0.0660
     70 H27         1.1110    2.7323   -0.8028 H         1 <0>         0.0512
     71 H28         0.2685    2.6560   -2.3373 H         1 <0>         0.0454
     72 H29        -4.5642   -3.1100    2.3009 H         1 <0>         0.0575
     73 H30        -4.8775   -1.4748    1.7520 H         1 <0>         0.0743
     74 H31        -3.1804    2.4738   -0.7898 H         1 <0>         0.0662
     75 H32        -2.2399    1.0381   -1.2201 H         1 <0>         0.0622
     76 H33         1.7614    0.6251   -3.0928 H         1 <0>         0.0321
     77 H34         1.8289   -0.7905   -2.0281 H         1 <0>         0.0204
     78 H35        -2.3644   -1.1272    1.4485 H         1 <0>         0.0749
     79 H36        -2.6537   -2.8903   -2.4873 H         1 <0>         0.0719
     80 H37        -5.0090   -1.5561    4.1946 H         1 <0>         0.0609
     81 H38        -0.3978    0.3245   -1.8868 H         1 <0>         0.1063
     82 H39        -2.6237    3.0881   -5.2742 H         1 <0>         0.4792
     83 H40        -4.0716    2.1635   -5.5226 H         1 <0>         0.4819
     84 H41        -4.3615    0.9362   -2.1213 H         1 <0>         0.4802
     85 H42        -5.0788    0.9188   -3.7066 H         1 <0>         0.4826
     86 H43         0.8216    0.7626    0.7549 H         1 <0>         0.3101
     87 H44        -2.4970   -3.5171   -0.0370 H         1 <0>         0.3087
     88 H45        -1.5986    3.1289   -3.0773 H         1 <0>         0.4846
     89 H46        -9.6952   -3.2429    0.7204 H         1 <0>         0.4194
     90 H47         1.8515   -6.8926    0.0654 H         1 <0>         0.4036
     91 H48         2.9636    1.7601   -1.6856 H         1 <0>         0.4114
     92 H49        -4.9875   -2.6994   -3.5670 H         1 <0>         0.3944
@<TRIPOS>BOND
     1    1    3 ar
     2    1    5 ar
     3    2    4 ar
     4    2    5 ar
     5    3    6 ar
     6    4    6 ar
     7    5   21 1
     8    6   40 1
     9    7   15 1
    10    7   34 am
    11    7   37 2
    12    8   27 1
    13    8   31 am
    14    8   38 2
    15    9   28 1
    16    9   35 am
    17    9   39 2
    18   10   32 1
    19   10   33 1
    20   10   36 1
    21   11   12 1
    22   11   16 1
    23   12   18 1
    24   13   15 1
    25   13   16 1
    26   14   17 1
    27   14   18 1
    28   15   31 1
    29   16   17 1
    30   17   31 1
    31   18   41 1
    32   19   29 1
    33   20   29 1
    34   21   28 1
    35   22   23 1
    36   22   25 1
    37   23   30 1
    38   24   27 1
    39   24   29 1
    40   25   36 1
    41   26   30 1
    42   26   42 1
    43   27   35 1
    44   28   43 1
    45   30   34 1
    46    1   44 1
    47    2   45 1
    48    3   46 1
    49    4   47 1
    50   11   48 1
    51   11   49 1
    52   12   50 1
    53   12   51 1
    54   13   52 1
    55   13   53 1
    56   14   54 1
    57   14   55 1
    58   15   56 1
    59   16   57 1
    60   17   58 1
    61   18   59 1
    62   19   60 1
    63   19   61 1
    64   19   62 1
    65   20   63 1
    66   20   64 1
    67   20   65 1
    68   21   66 1
    69   21   67 1
    70   22   68 1
    71   22   69 1
    72   23   70 1
    73   23   71 1
    74   24   72 1
    75   24   73 1
    76   25   74 1
    77   25   75 1
    78   26   76 1
    79   26   77 1
    80   27   78 1
    81   28   79 1
    82   29   80 1
    83   30   81 1
    84   32   82 1
    85   32   83 1
    86   33   84 1
    87   33   85 1
    88   34   86 1
    89   35   87 1
    90   36   88 1
    91   40   89 1
    92   41   90 1
    93   42   91 1
    94   43   92 1
@<TRIPOS>MOLECULE
1a2c_ligand_260
   92    94     0     0     0
SMALL
USER_CHARGES

mmff94s_NoEstat = 124.66
@<TRIPOS>ATOM
      1 C1         -7.5346    0.8177   -2.9104 C.ar      1 <0>        -0.0708
      2 C2         -5.2514    1.4900   -2.4958 C.ar      1 <0>        -0.0872
      3 C3         -7.9778    2.0803   -2.5169 C.ar      1 <0>        -0.2241
      4 C4         -5.6946    2.7527   -2.1023 C.ar      1 <0>        -0.1600
      5 C5         -6.1773    0.5395   -2.8946 C.ar      1 <0>        -0.1356
      6 C6         -7.0578    3.0479   -2.1128 C.ar      1 <0>         0.1290
      7 C7         -0.1674   -1.0853   -0.0424 C.2       1 <0>         0.6664
      8 C8         -2.5997   -3.1326    0.7250 C.2       1 <0>         0.6651
      9 C9         -4.3299   -1.6044   -1.3634 C.2       1 <0>         0.6454
     10 C10        -1.7328    1.9974   -4.4820 C.cat     1 <0>         0.6349
     11 C11         2.0445   -3.7524    0.2047 C.3       1 <0>        -0.0642
     12 C12         2.1951   -5.1517   -0.3975 C.3       1 <0>        -0.0747
     13 C13         0.7864   -2.3272    1.9103 C.3       1 <0>        -0.0873
     14 C14        -0.3466   -4.9962   -0.4055 C.3       1 <0>        -0.1371
     15 C15        -0.4770   -1.8334    1.2187 C.3       1 <0>         0.0360
     16 C16         1.0305   -3.7327    1.3503 C.3       1 <0>        -0.0720
     17 C17        -0.3661   -4.2312    0.9284 C.3       1 <0>         0.1201
     18 C18         0.8694   -5.9135   -0.5141 C.3       1 <0>         0.1453
     19 C19        -5.9631   -0.4404    1.7581 C.3       1 <0>        -0.0968
     20 C20        -3.8887    0.7550    2.4841 C.3       1 <0>        -0.0986
     21 C21        -5.6975   -0.8273   -3.3213 C.3       1 <0>        -0.0191
     22 C22        -1.2290    2.3228   -0.7494 C.3       1 <0>        -0.1009
     23 C23         0.3037    2.3337   -0.7876 C.3       1 <0>        -0.0942
     24 C24        -3.8619   -1.7555    2.3678 C.3       1 <0>        -0.0988
     25 C25        -1.8057    1.6659   -2.0016 C.3       1 <0>         0.1966
     26 C26         2.4918    0.9866   -0.9811 C.3       1 <0>         0.1128
     27 C27        -3.3800   -1.8574    0.9254 C.3       1 <0>         0.0786
     28 C28        -5.6231   -1.8048   -2.1437 C.3       1 <0>         0.0744
     29 C29        -4.7285   -0.5135    2.6578 C.3       1 <0>        -0.0678
     30 C30         0.9627    0.9465   -0.9241 C.3       1 <0>         0.1065
     31 N1         -1.2224   -3.0398    0.8850 N.am      1 <0>        -0.4315
     32 N2         -1.2982    2.7214   -5.5874 N.pl3     1 <0>        -0.8671
     33 N3         -2.5306    0.8753   -4.6776 N.pl3     1 <0>        -0.8581
     34 N4          0.5562    0.0753    0.1551 N.am      1 <0>        -0.5687
     35 N5         -4.4491   -1.9660   -0.0233 N.am      1 <0>        -0.5746
     36 N6         -1.3772    2.3841   -3.1783 N.pl3     1 <0>        -0.7533
     37 O1         -0.5544   -1.5275   -1.1177 O.2       1 <0>        -0.5843
     38 O2         -3.1933   -4.1752    0.4418 O.2       1 <0>        -0.6812
     39 O3         -3.3092   -1.1565   -1.8810 O.2       1 <0>        -0.5788
     40 O4         -7.4902    4.2805   -1.7304 O.3       1 <0>        -0.4938
     41 O5          0.7872   -6.8901    0.5248 O.3       1 <0>        -0.6030
     42 O6          3.0045   -0.3315   -1.1244 O.3       1 <0>        -0.5860
     43 O7         -5.6385   -3.1336   -2.6450 O.3       1 <0>        -0.6021
     44 H1         -8.2588    0.0704   -3.2233 H         1 <0>         0.1412
     45 H2         -4.1872    1.2690   -2.4847 H         1 <0>         0.1451
     46 H3         -9.0409    2.3042   -2.5274 H         1 <0>         0.1336
     47 H4         -4.9728    3.5026   -1.7894 H         1 <0>         0.1567
     48 H5          3.0220   -3.4003    0.5555 H         1 <0>         0.0649
     49 H6          1.7363   -3.0584   -0.5866 H         1 <0>         0.0476
     50 H7          2.6388   -5.0399   -1.3944 H         1 <0>         0.0641
     51 H8          2.9088   -5.7297    0.2024 H         1 <0>         0.0484
     52 H9          1.6439   -1.6583    1.7836 H         1 <0>         0.0596
     53 H10         0.5887   -2.4119    2.9867 H         1 <0>         0.0757
     54 H11        -1.2632   -5.5927   -0.4872 H         1 <0>         0.0782
     55 H12        -0.3526   -4.2949   -1.2498 H         1 <0>         0.0812
     56 H13        -1.0651   -1.1731    1.8629 H         1 <0>         0.0731
     57 H14         1.4245   -4.3763    2.1480 H         1 <0>         0.0511
     58 H15        -0.7725   -4.8823    1.7135 H         1 <0>         0.0753
     59 H16         0.8433   -6.4624   -1.4612 H         1 <0>         0.0427
     60 H17        -6.5181    0.4873    1.9352 H         1 <0>         0.0450
     61 H18        -6.6497   -1.2692    1.9547 H         1 <0>         0.0406
     62 H19        -5.6850   -0.4702    0.6992 H         1 <0>         0.0274
     63 H20        -3.5277    0.8553    1.4548 H         1 <0>         0.0476
     64 H21        -4.4764    1.6472    2.7254 H         1 <0>         0.0170
     65 H22        -3.0188    0.7404    3.1493 H         1 <0>         0.0477
     66 H23        -4.7106   -0.7311   -3.7935 H         1 <0>         0.0814
     67 H24        -6.3690   -1.1997   -4.1051 H         1 <0>         0.0685
     68 H25        -1.5809    1.7783    0.1345 H         1 <0>         0.1016
     69 H26        -1.6141    3.3462   -0.6663 H         1 <0>         0.0660
     70 H27         0.6789    2.8127    0.1271 H         1 <0>         0.0512
     71 H28         0.6355    2.9707   -1.6175 H         1 <0>         0.0454
     72 H29        -2.9928   -1.7573    3.0396 H         1 <0>         0.0575
     73 H30        -4.4407   -2.6540    2.6237 H         1 <0>         0.0743
     74 H31        -2.9001    1.6652   -1.9605 H         1 <0>         0.0662
     75 H32        -1.4731    0.6255   -2.0772 H         1 <0>         0.0622
     76 H33         2.9238    1.4335   -0.0796 H         1 <0>         0.0321
     77 H34         2.8279    1.5728   -1.8441 H         1 <0>         0.0204
     78 H35        -2.7366   -1.0282    0.6336 H         1 <0>         0.0749
     79 H36        -6.4753   -1.6838   -1.4644 H         1 <0>         0.0719
     80 H37        -5.0656   -0.5471    3.7011 H         1 <0>         0.0609
     81 H38         0.5984    0.5173   -1.8665 H         1 <0>         0.1063
     82 H39        -0.7155    3.5489   -5.4927 H         1 <0>         0.4792
     83 H40        -1.5569    2.4407   -6.5304 H         1 <0>         0.4819
     84 H41        -2.8658    0.3232   -3.8918 H         1 <0>         0.4802
     85 H42        -2.7991    0.5765   -5.6121 H         1 <0>         0.4826
     86 H43         0.8147    0.3282    1.1041 H         1 <0>         0.3101
     87 H44        -5.3471   -2.3283    0.3008 H         1 <0>         0.3087
     88 H45        -0.7866    3.2201   -3.0915 H         1 <0>         0.4846
     89 H46        -8.3618    4.2152   -1.3085 H         1 <0>         0.4194
     90 H47         1.3049   -6.5470    1.2701 H         1 <0>         0.4036
     91 H48         3.0027   -0.7302   -0.2393 H         1 <0>         0.4114
     92 H49        -5.9469   -3.0835   -3.5645 H         1 <0>         0.3944
@<TRIPOS>BOND
     1    1    3 ar
     2    1    5 ar
     3    2    4 ar
     4    2    5 ar
     5    3    6 ar
     6    4    6 ar
     7    5   21 1
     8    6   40 1
     9    7   15 1
    10    7   34 am
    11    7   37 2
    12    8   27 1
    13    8   31 am
    14    8   38 2
    15    9   28 1
    16    9   35 am
    17    9   39 2
    18   10   32 1
    19   10   33 1
    20   10   36 1
    21   11   12 1
    22   11   16 1
    23   12   18 1
    24   13   15 1
    25   13   16 1
    26   14   17 1
    27   14   18 1
    28   15   31 1
    29   16   17 1
    30   17   31 1
    31   18   41 1
    32   19   29 1
    33   20   29 1
    34   21   28 1
    35   22   23 1
    36   22   25 1
    37   23   30 1
    38   24   27 1
    39   24   29 1
    40   25   36 1
    41   26   30 1
    42   26   42 1
    43   27   35 1
    44   28   43 1
    45   30   34 1
    46    1   44 1
    47    2   45 1
    48    3   46 1
    49    4   47 1
    50   11   48 1
    51   11   49 1
    52   12   50 1
    53   12   51 1
    54   13   52 1
    55   13   53 1
    56   14   54 1
    57   14   55 1
    58   15   56 1
    59   16   57 1
    60   17   58 1
    61   18   59 1
    62   19   60 1
    63   19   61 1
    64   19   62 1
    65   20   63 1
    66   20   64 1
    67   20   65 1
    68   21   66 1
    69   21   67 1
    70   22   68 1
    71   22   69 1
    72   23   70 1
    73   23   71 1
    74   24   72 1
    75   24   73 1
    76   25   74 1
    77   25   75 1
    78   26   76 1
    79   26   77 1
    80   27   78 1
    81   28   79 1
    82   29   80 1
    83   30   81 1
    84   32   82 1
    85   32   83 1
    86   33   84 1
    87   33   85 1
    88   34   86 1
    89   35   87 1
    90   36   88 1
    91   40   89 1
    92   41   90 1
    93   42   91 1
    94   43   92 1
@<TRIPOS>MOLECULE
1a2c_ligand_261
   92    94     0     0     0
SMALL
USER_CHARGES

mmff94s_NoEstat = 124.68
@<TRIPOS>ATOM
      1 C1         -2.2486   -4.7102   -4.4538 C.ar      1 <0>        -0.0708
      2 C2         -2.0907   -2.3688   -5.0284 C.ar      1 <0>        -0.0872
      3 C3         -2.1970   -5.0457   -5.8067 C.ar      1 <0>        -0.2241
      4 C4         -2.0391   -2.7043   -6.3813 C.ar      1 <0>        -0.1600
      5 C5         -2.1947   -3.3763   -4.0828 C.ar      1 <0>        -0.1356
      6 C6         -2.0922   -4.0427   -6.7705 C.ar      1 <0>         0.1290
      7 C7         -0.0512   -1.0561    0.2993 C.2       1 <0>         0.6664
      8 C8         -1.8469   -3.0457    2.1630 C.2       1 <0>         0.6651
      9 C9         -3.6974   -2.0123   -0.8263 C.2       1 <0>         0.6454
     10 C10        -2.6672    5.4277   -0.3386 C.cat     1 <0>         0.6349
     11 C11         2.5186   -3.1911    0.6823 C.3       1 <0>        -0.0642
     12 C12         2.4580   -4.6414    0.2376 C.3       1 <0>        -0.0747
     13 C13         1.4874   -1.4827    2.2418 C.3       1 <0>        -0.0873
     14 C14         0.4946   -5.0934    1.7133 C.3       1 <0>        -0.1371
     15 C15         0.0412   -1.4176    1.7503 C.3       1 <0>         0.0360
     16 C16         1.8865   -2.9529    2.0632 C.3       1 <0>        -0.0720
     17 C17         0.5665   -3.7001    2.3454 C.3       1 <0>         0.1201
     18 C18         1.0248   -5.1525    0.2868 C.3       1 <0>         0.1453
     19 C19        -3.4345   -0.1597    3.7904 C.3       1 <0>        -0.0968
     20 C20        -3.1391   -2.5257    4.5483 C.3       1 <0>        -0.0986
     21 C21        -2.2499   -3.0131   -2.6180 C.3       1 <0>        -0.0191
     22 C22        -1.8968    1.7896   -1.0188 C.3       1 <0>        -0.1009
     23 C23        -0.4337    2.0012   -1.4250 C.3       1 <0>        -0.0942
     24 C24        -4.1436   -2.0954    2.2850 C.3       1 <0>        -0.0988
     25 C25        -2.7062    3.0733   -1.1890 C.3       1 <0>         0.1966
     26 C26         1.9058    0.9774   -1.7696 C.3       1 <0>         0.1128
     27 C27        -2.8325   -2.1090    1.5076 C.3       1 <0>         0.0786
     28 C28        -3.6869   -2.7967   -2.1325 C.3       1 <0>         0.0744
     29 C29        -4.0154   -1.5731    3.7302 C.3       1 <0>        -0.0678
     30 C30         0.4555    0.7445   -1.3388 C.3       1 <0>         0.1065
     31 N1         -0.4979   -2.7598    1.9615 N.am      1 <0>        -0.4315
     32 N2         -2.0958    6.4072    0.4670 N.pl3     1 <0>        -0.8671
     33 N3         -3.7703    5.7519   -1.1209 N.pl3     1 <0>        -0.8581
     34 N4          0.4455    0.1980   -0.0008 N.am      1 <0>        -0.5687
     35 N5         -2.9650   -2.6361    0.1813 N.am      1 <0>        -0.5746
     36 N6         -2.1460    4.1226   -0.3710 N.pl3     1 <0>        -0.7533
     37 O1         -0.5362   -1.8555   -0.4928 O.2       1 <0>        -0.5843
     38 O2         -2.2659   -3.9924    2.8322 O.2       1 <0>        -0.6812
     39 O3         -4.3065   -0.9527   -0.6974 O.2       1 <0>        -0.5788
     40 O4         -2.0402   -4.3703   -8.0906 O.3       1 <0>        -0.4938
     41 O5          0.9879   -6.5072   -0.1510 O.3       1 <0>        -0.6030
     42 O6          2.5087    1.9525   -0.9290 O.3       1 <0>        -0.5860
     43 O7         -4.2899   -4.0610   -1.8967 O.3       1 <0>        -0.6021
     44 H1         -2.3303   -5.4984   -3.7103 H         1 <0>         0.1412
     45 H2         -2.0483   -1.3233   -4.7344 H         1 <0>         0.1451
     46 H3         -2.2386   -6.0899   -6.1035 H         1 <0>         0.1336
     47 H4         -1.9565   -1.9184   -7.1275 H         1 <0>         0.1567
     48 H5          3.5627   -2.8549    0.7003 H         1 <0>         0.0649
     49 H6          2.0259   -2.5829   -0.0837 H         1 <0>         0.0476
     50 H7          2.8567   -4.7427   -0.7790 H         1 <0>         0.0641
     51 H8          3.1032   -5.2618    0.8729 H         1 <0>         0.0484
     52 H9          2.1569   -0.7868    1.7257 H         1 <0>         0.0596
     53 H10         1.5124   -1.2395    3.3116 H         1 <0>         0.0757
     54 H11         1.0921   -5.7802    2.3299 H         1 <0>         0.0782
     55 H12        -0.5175   -5.5090    1.7393 H         1 <0>         0.0812
     56 H13        -0.5378   -0.6778    2.3126 H         1 <0>         0.0731
     57 H14         2.6304   -3.2407    2.8169 H         1 <0>         0.0511
     58 H15         0.4523   -3.8218    3.4319 H         1 <0>         0.0753
     59 H16         0.3841   -4.5700   -0.3844 H         1 <0>         0.0427
     60 H17        -3.2863    0.1550    4.8292 H         1 <0>         0.0450
     61 H18        -4.1066    0.5680    3.3260 H         1 <0>         0.0406
     62 H19        -2.4667   -0.1061    3.2804 H         1 <0>         0.0274
     63 H20        -2.1236   -2.5806    4.1412 H         1 <0>         0.0476
     64 H21        -3.0691   -2.1929    5.5894 H         1 <0>         0.0170
     65 H22        -3.5594   -3.5370    4.5502 H         1 <0>         0.0477
     66 H23        -1.6549   -2.1055   -2.4495 H         1 <0>         0.0814
     67 H24        -1.7526   -3.8070   -2.0467 H         1 <0>         0.0685
     68 H25        -2.3478    0.9988   -1.6296 H         1 <0>         0.1016
     69 H26        -1.9571    1.4582    0.0248 H         1 <0>         0.0660
     70 H27         0.0021    2.7844   -0.7898 H         1 <0>         0.0512
     71 H28        -0.4008    2.3932   -2.4497 H         1 <0>         0.0454
     72 H29        -4.5642   -3.1100    2.3009 H         1 <0>         0.0575
     73 H30        -4.8775   -1.4748    1.7520 H         1 <0>         0.0743
     74 H31        -3.7481    2.9073   -0.8955 H         1 <0>         0.0662
     75 H32        -2.7006    3.3948   -2.2356 H         1 <0>         0.0622
     76 H33         1.9749    1.3199   -2.8074 H         1 <0>         0.0321
     77 H34         2.4858    0.0519   -1.6791 H         1 <0>         0.0204
     78 H35        -2.3644   -1.1272    1.4485 H         1 <0>         0.0749
     79 H36        -4.2885   -2.2626   -2.8775 H         1 <0>         0.0719
     80 H37        -5.0090   -1.5561    4.1946 H         1 <0>         0.0609
     81 H38         0.0149    0.0012   -2.0158 H         1 <0>         0.1063
     82 H39        -1.2903    6.2156    1.0567 H         1 <0>         0.4792
     83 H40        -2.4745    7.3512    0.4899 H         1 <0>         0.4819
     84 H41        -4.2125    5.0601   -1.7212 H         1 <0>         0.4802
     85 H42        -4.1632    6.6901   -1.1140 H         1 <0>         0.4826
     86 H43         0.8216    0.7626    0.7549 H         1 <0>         0.3101
     87 H44        -2.4970   -3.5171   -0.0370 H         1 <0>         0.3087
     88 H45        -1.3309    3.9380    0.2262 H         1 <0>         0.4846
     89 H46        -2.5628   -5.1704   -8.2594 H         1 <0>         0.4194
     90 H47         1.8515   -6.8926    0.0654 H         1 <0>         0.4036
     91 H48         2.2238    2.8203   -1.2580 H         1 <0>         0.4114
     92 H49        -3.7363   -4.7236   -2.3413 H         1 <0>         0.3944
@<TRIPOS>BOND
     1    1    3 ar
     2    1    5 ar
     3    2    4 ar
     4    2    5 ar
     5    3    6 ar
     6    4    6 ar
     7    5   21 1
     8    6   40 1
     9    7   15 1
    10    7   34 am
    11    7   37 2
    12    8   27 1
    13    8   31 am
    14    8   38 2
    15    9   28 1
    16    9   35 am
    17    9   39 2
    18   10   32 1
    19   10   33 1
    20   10   36 1
    21   11   12 1
    22   11   16 1
    23   12   18 1
    24   13   15 1
    25   13   16 1
    26   14   17 1
    27   14   18 1
    28   15   31 1
    29   16   17 1
    30   17   31 1
    31   18   41 1
    32   19   29 1
    33   20   29 1
    34   21   28 1
    35   22   23 1
    36   22   25 1
    37   23   30 1
    38   24   27 1
    39   24   29 1
    40   25   36 1
    41   26   30 1
    42   26   42 1
    43   27   35 1
    44   28   43 1
    45   30   34 1
    46    1   44 1
    47    2   45 1
    48    3   46 1
    49    4   47 1
    50   11   48 1
    51   11   49 1
    52   12   50 1
    53   12   51 1
    54   13   52 1
    55   13   53 1
    56   14   54 1
    57   14   55 1
    58   15   56 1
    59   16   57 1
    60   17   58 1
    61   18   59 1
    62   19   60 1
    63   19   61 1
    64   19   62 1
    65   20   63 1
    66   20   64 1
    67   20   65 1
    68   21   66 1
    69   21   67 1
    70   22   68 1
    71   22   69 1
    72   23   70 1
    73   23   71 1
    74   24   72 1
    75   24   73 1
    76   25   74 1
    77   25   75 1
    78   26   76 1
    79   26   77 1
    80   27   78 1
    81   28   79 1
    82   29   80 1
    83   30   81 1
    84   32   82 1
    85   32   83 1
    86   33   84 1
    87   33   85 1
    88   34   86 1
    89   35   87 1
    90   36   88 1
    91   40   89 1
    92   41   90 1
    93   42   91 1
    94   43   92 1
@<TRIPOS>MOLECULE
1a2c_ligand_262
   92    94     0     0     0
SMALL
USER_CHARGES

mmff94s_NoEstat = 124.76
@<TRIPOS>ATOM
      1 C1         -3.0968   -3.0852   -5.5316 C.ar      1 <0>        -0.0708
      2 C2         -5.3310   -2.4779   -4.8413 C.ar      1 <0>        -0.0872
      3 C3         -3.6201   -3.7497   -6.6408 C.ar      1 <0>        -0.2241
      4 C4         -5.8543   -3.1424   -5.9504 C.ar      1 <0>        -0.1600
      5 C5         -3.9592   -2.4582   -4.6468 C.ar      1 <0>        -0.1356
      6 C6         -4.9989   -3.7783   -6.8502 C.ar      1 <0>         0.1290
      7 C7         -0.0512   -1.0561    0.2993 C.2       1 <0>         0.6664
      8 C8         -1.8469   -3.0457    2.1630 C.2       1 <0>         0.6651
      9 C9         -3.1350   -1.8416   -0.9503 C.2       1 <0>         0.6454
     10 C10        -2.7746    6.0237    0.0845 C.cat     1 <0>         0.6349
     11 C11         2.5186   -3.1911    0.6823 C.3       1 <0>        -0.0642
     12 C12         2.4580   -4.6414    0.2376 C.3       1 <0>        -0.0747
     13 C13         1.4874   -1.4827    2.2418 C.3       1 <0>        -0.0873
     14 C14         0.4946   -5.0934    1.7133 C.3       1 <0>        -0.1371
     15 C15         0.0412   -1.4176    1.7503 C.3       1 <0>         0.0360
     16 C16         1.8865   -2.9529    2.0632 C.3       1 <0>        -0.0720
     17 C17         0.5665   -3.7001    2.3454 C.3       1 <0>         0.1201
     18 C18         1.0248   -5.1525    0.2868 C.3       1 <0>         0.1453
     19 C19        -3.4345   -0.1597    3.7904 C.3       1 <0>        -0.0968
     20 C20        -3.1391   -2.5257    4.5483 C.3       1 <0>        -0.0986
     21 C21        -3.3925   -1.7382   -3.4464 C.3       1 <0>        -0.0191
     22 C22        -1.0374    2.7415   -0.6235 C.3       1 <0>        -0.1009
     23 C23         0.2513    2.2726   -1.3090 C.3       1 <0>        -0.0942
     24 C24        -4.1436   -2.0954    2.2850 C.3       1 <0>        -0.0988
     25 C25        -1.1758    4.2607   -0.6924 C.3       1 <0>         0.1966
     26 C26         1.7383    0.3016   -2.0469 C.3       1 <0>         0.1128
     27 C27        -2.8325   -2.1090    1.5076 C.3       1 <0>         0.0786
     28 C28        -3.2671   -2.6599   -2.2288 C.3       1 <0>         0.0744
     29 C29        -4.0154   -1.5731    3.7302 C.3       1 <0>        -0.0678
     30 C30         0.4555    0.7445   -1.3388 C.3       1 <0>         0.1065
     31 N1         -0.4979   -2.7598    1.9615 N.am      1 <0>        -0.4315
     32 N2         -3.9558    6.3783    0.7278 N.pl3     1 <0>        -0.8671
     33 N3         -1.9667    7.0223   -0.4484 N.pl3     1 <0>        -0.8581
     34 N4          0.4455    0.1980   -0.0008 N.am      1 <0>        -0.5687
     35 N5         -2.9650   -2.6361    0.1813 N.am      1 <0>        -0.5746
     36 N6         -2.3904    4.6766   -0.0323 N.pl3     1 <0>        -0.7533
     37 O1         -0.5362   -1.8555   -0.4928 O.2       1 <0>        -0.5843
     38 O2         -2.2659   -3.9924    2.8322 O.2       1 <0>        -0.6812
     39 O3         -3.1903   -0.6139   -0.9436 O.2       1 <0>        -0.5788
     40 O4         -5.5095   -4.4254   -7.9334 O.3       1 <0>        -0.4938
     41 O5          0.9879   -6.5072   -0.1510 O.3       1 <0>        -0.6030
     42 O6          2.8703    0.8436   -1.3793 O.3       1 <0>        -0.5860
     43 O7         -2.0989   -3.4553   -2.3702 O.3       1 <0>        -0.6021
     44 H1         -2.0214   -3.0685   -5.3768 H         1 <0>         0.1412
     45 H2         -6.0050   -1.9849   -4.1456 H         1 <0>         0.1451
     46 H3         -2.9487   -4.2430   -7.3380 H         1 <0>         0.1336
     47 H4         -6.9294   -3.1604   -6.1086 H         1 <0>         0.1567
     48 H5          3.5627   -2.8549    0.7003 H         1 <0>         0.0649
     49 H6          2.0259   -2.5829   -0.0837 H         1 <0>         0.0476
     50 H7          2.8567   -4.7427   -0.7790 H         1 <0>         0.0641
     51 H8          3.1032   -5.2618    0.8729 H         1 <0>         0.0484
     52 H9          2.1569   -0.7868    1.7257 H         1 <0>         0.0596
     53 H10         1.5124   -1.2395    3.3116 H         1 <0>         0.0757
     54 H11         1.0921   -5.7802    2.3299 H         1 <0>         0.0782
     55 H12        -0.5175   -5.5090    1.7393 H         1 <0>         0.0812
     56 H13        -0.5378   -0.6778    2.3126 H         1 <0>         0.0731
     57 H14         2.6304   -3.2407    2.8169 H         1 <0>         0.0511
     58 H15         0.4523   -3.8218    3.4319 H         1 <0>         0.0753
     59 H16         0.3841   -4.5700   -0.3844 H         1 <0>         0.0427
     60 H17        -3.2863    0.1550    4.8292 H         1 <0>         0.0450
     61 H18        -4.1066    0.5680    3.3260 H         1 <0>         0.0406
     62 H19        -2.4667   -0.1061    3.2804 H         1 <0>         0.0274
     63 H20        -2.1236   -2.5806    4.1412 H         1 <0>         0.0476
     64 H21        -3.0691   -2.1929    5.5894 H         1 <0>         0.0170
     65 H22        -3.5594   -3.5370    4.5502 H         1 <0>         0.0477
     66 H23        -4.0346   -0.8806   -3.2048 H         1 <0>         0.0814
     67 H24        -2.4198   -1.3143   -3.7258 H         1 <0>         0.0685
     68 H25        -1.9092    2.2808   -1.1025 H         1 <0>         0.1016
     69 H26        -1.0467    2.4234    0.4259 H         1 <0>         0.0660
     70 H27         1.1110    2.7323   -0.8028 H         1 <0>         0.0512
     71 H28         0.2685    2.6560   -2.3373 H         1 <0>         0.0454
     72 H29        -4.5642   -3.1100    2.3009 H         1 <0>         0.0575
     73 H30        -4.8775   -1.4748    1.7520 H         1 <0>         0.0743
     74 H31        -1.2027    4.5928   -1.7356 H         1 <0>         0.0662
     75 H32        -0.3220    4.7463   -0.2087 H         1 <0>         0.0622
     76 H33         1.7614    0.6251   -3.0928 H         1 <0>         0.0321
     77 H34         1.8289   -0.7905   -2.0281 H         1 <0>         0.0204
     78 H35        -2.3644   -1.1272    1.4485 H         1 <0>         0.0749
     79 H36        -4.1304   -3.3299   -2.1392 H         1 <0>         0.0719
     80 H37        -5.0090   -1.5561    4.1946 H         1 <0>         0.0609
     81 H38        -0.3978    0.3245   -1.8868 H         1 <0>         0.1063
     82 H39        -4.5782    5.6828    1.1306 H         1 <0>         0.4792
     83 H40        -4.2329    7.3536    0.8111 H         1 <0>         0.4819
     84 H41        -1.0966    6.7983   -0.9251 H         1 <0>         0.4802
     85 H42        -2.2244    8.0035   -0.3744 H         1 <0>         0.4826
     86 H43         0.8216    0.7626    0.7549 H         1 <0>         0.3101
     87 H44        -2.9331   -3.6495    0.0592 H         1 <0>         0.3087
     88 H45        -3.0238    3.9804    0.3791 H         1 <0>         0.4846
     89 H46        -4.9553   -5.1889   -8.1611 H         1 <0>         0.4194
     90 H47         1.8515   -6.8926    0.0654 H         1 <0>         0.4036
     91 H48         2.9636    1.7601   -1.6856 H         1 <0>         0.4114
     92 H49        -1.8296   -3.3960   -3.3014 H         1 <0>         0.3944
@<TRIPOS>BOND
     1    1    3 ar
     2    1    5 ar
     3    2    4 ar
     4    2    5 ar
     5    3    6 ar
     6    4    6 ar
     7    5   21 1
     8    6   40 1
     9    7   15 1
    10    7   34 am
    11    7   37 2
    12    8   27 1
    13    8   31 am
    14    8   38 2
    15    9   28 1
    16    9   35 am
    17    9   39 2
    18   10   32 1
    19   10   33 1
    20   10   36 1
    21   11   12 1
    22   11   16 1
    23   12   18 1
    24   13   15 1
    25   13   16 1
    26   14   17 1
    27   14   18 1
    28   15   31 1
    29   16   17 1
    30   17   31 1
    31   18   41 1
    32   19   29 1
    33   20   29 1
    34   21   28 1
    35   22   23 1
    36   22   25 1
    37   23   30 1
    38   24   27 1
    39   24   29 1
    40   25   36 1
    41   26   30 1
    42   26   42 1
    43   27   35 1
    44   28   43 1
    45   30   34 1
    46    1   44 1
    47    2   45 1
    48    3   46 1
    49    4   47 1
    50   11   48 1
    51   11   49 1
    52   12   50 1
    53   12   51 1
    54   13   52 1
    55   13   53 1
    56   14   54 1
    57   14   55 1
    58   15   56 1
    59   16   57 1
    60   17   58 1
    61   18   59 1
    62   19   60 1
    63   19   61 1
    64   19   62 1
    65   20   63 1
    66   20   64 1
    67   20   65 1
    68   21   66 1
    69   21   67 1
    70   22   68 1
    71   22   69 1
    72   23   70 1
    73   23   71 1
    74   24   72 1
    75   24   73 1
    76   25   74 1
    77   25   75 1
    78   26   76 1
    79   26   77 1
    80   27   78 1
    81   28   79 1
    82   29   80 1
    83   30   81 1
    84   32   82 1
    85   32   83 1
    86   33   84 1
    87   33   85 1
    88   34   86 1
    89   35   87 1
    90   36   88 1
    91   40   89 1
    92   41   90 1
    93   42   91 1
    94   43   92 1
@<TRIPOS>MOLECULE
1a2c_ligand_263
   92    94     0     0     0
SMALL
USER_CHARGES

mmff94s_NoEstat = 125.00
@<TRIPOS>ATOM
      1 C1         -5.1712   -5.3969   -2.2706 C.ar      1 <0>        -0.0708
      2 C2         -5.8301   -3.8992   -0.4931 C.ar      1 <0>        -0.0872
      3 C3         -5.6557   -6.4801   -1.5375 C.ar      1 <0>        -0.2241
      4 C4         -6.3147   -4.9824    0.2400 C.ar      1 <0>        -0.1600
      5 C5         -5.2649   -4.1210   -1.7386 C.ar      1 <0>        -0.1356
      6 C6         -6.2275   -6.2729   -0.2821 C.ar      1 <0>         0.1290
      7 C7         -0.0512   -1.0561    0.2993 C.2       1 <0>         0.6664
      8 C8         -1.8469   -3.0457    2.1630 C.2       1 <0>         0.6651
      9 C9         -3.1350   -1.8416   -0.9503 C.2       1 <0>         0.6454
     10 C10        -2.7026    4.0282    1.1097 C.cat     1 <0>         0.6349
     11 C11         2.5186   -3.1911    0.6823 C.3       1 <0>        -0.0642
     12 C12         2.4580   -4.6414    0.2376 C.3       1 <0>        -0.0747
     13 C13         1.4874   -1.4827    2.2418 C.3       1 <0>        -0.0873
     14 C14         0.4946   -5.0934    1.7133 C.3       1 <0>        -0.1371
     15 C15         0.0412   -1.4176    1.7503 C.3       1 <0>         0.0360
     16 C16         1.8865   -2.9529    2.0632 C.3       1 <0>        -0.0720
     17 C17         0.5665   -3.7001    2.3454 C.3       1 <0>         0.1201
     18 C18         1.0248   -5.1525    0.2868 C.3       1 <0>         0.1453
     19 C19        -3.4345   -0.1597    3.7904 C.3       1 <0>        -0.0968
     20 C20        -3.1391   -2.5257    4.5483 C.3       1 <0>        -0.0986
     21 C21        -4.7410   -2.9482   -2.5326 C.3       1 <0>        -0.0191
     22 C22         0.0133    3.1737   -0.5440 C.3       1 <0>        -0.1009
     23 C23        -0.4337    2.0012   -1.4250 C.3       1 <0>        -0.0942
     24 C24        -4.1436   -2.0954    2.2850 C.3       1 <0>        -0.0988
     25 C25        -0.9571    4.3475   -0.6564 C.3       1 <0>         0.1966
     26 C26         1.9058    0.9774   -1.7696 C.3       1 <0>         0.1128
     27 C27        -2.8325   -2.1090    1.5076 C.3       1 <0>         0.0786
     28 C28        -3.2671   -2.6599   -2.2288 C.3       1 <0>         0.0744
     29 C29        -4.0154   -1.5731    3.7302 C.3       1 <0>        -0.0678
     30 C30         0.4555    0.7445   -1.3388 C.3       1 <0>         0.1065
     31 N1         -0.4979   -2.7598    1.9615 N.am      1 <0>        -0.4315
     32 N2         -3.9828    3.6280    1.4784 N.pl3     1 <0>        -0.8671
     33 N3         -1.8392    4.5195    2.0829 N.pl3     1 <0>        -0.8581
     34 N4          0.4455    0.1980   -0.0008 N.am      1 <0>        -0.5687
     35 N5         -2.9650   -2.6361    0.1813 N.am      1 <0>        -0.5746
     36 N6         -2.2743    3.9424   -0.2264 N.pl3     1 <0>        -0.7533
     37 O1         -0.5362   -1.8555   -0.4928 O.2       1 <0>        -0.5843
     38 O2         -2.2659   -3.9924    2.8322 O.2       1 <0>        -0.6812
     39 O3         -3.1903   -0.6139   -0.9436 O.2       1 <0>        -0.5788
     40 O4         -6.7018   -7.3298    0.4325 O.3       1 <0>        -0.4938
     41 O5          0.9879   -6.5072   -0.1510 O.3       1 <0>        -0.6030
     42 O6          2.6391   -0.2366   -1.6731 O.3       1 <0>        -0.5860
     43 O7         -2.7142   -1.9061   -3.2982 O.3       1 <0>        -0.6021
     44 H1         -4.7273   -5.5683   -3.2475 H         1 <0>         0.1412
     45 H2         -5.9026   -2.8971   -0.0784 H         1 <0>         0.1451
     46 H3         -5.5850   -7.4829   -1.9497 H         1 <0>         0.1336
     47 H4         -6.7599   -4.8144    1.2171 H         1 <0>         0.1567
     48 H5          3.5627   -2.8549    0.7003 H         1 <0>         0.0649
     49 H6          2.0259   -2.5829   -0.0837 H         1 <0>         0.0476
     50 H7          2.8567   -4.7427   -0.7790 H         1 <0>         0.0641
     51 H8          3.1032   -5.2618    0.8729 H         1 <0>         0.0484
     52 H9          2.1569   -0.7868    1.7257 H         1 <0>         0.0596
     53 H10         1.5124   -1.2395    3.3116 H         1 <0>         0.0757
     54 H11         1.0921   -5.7802    2.3299 H         1 <0>         0.0782
     55 H12        -0.5175   -5.5090    1.7393 H         1 <0>         0.0812
     56 H13        -0.5378   -0.6778    2.3126 H         1 <0>         0.0731
     57 H14         2.6304   -3.2407    2.8169 H         1 <0>         0.0511
     58 H15         0.4523   -3.8218    3.4319 H         1 <0>         0.0753
     59 H16         0.3841   -4.5700   -0.3844 H         1 <0>         0.0427
     60 H17        -3.2863    0.1550    4.8292 H         1 <0>         0.0450
     61 H18        -4.1066    0.5680    3.3260 H         1 <0>         0.0406
     62 H19        -2.4667   -0.1061    3.2804 H         1 <0>         0.0274
     63 H20        -2.1236   -2.5806    4.1412 H         1 <0>         0.0476
     64 H21        -3.0691   -2.1929    5.5894 H         1 <0>         0.0170
     65 H22        -3.5594   -3.5370    4.5502 H         1 <0>         0.0477
     66 H23        -5.3512   -2.0623   -2.3115 H         1 <0>         0.0814
     67 H24        -4.8934   -3.1577   -3.5989 H         1 <0>         0.0685
     68 H25         0.0724    2.8576    0.5040 H         1 <0>         0.1016
     69 H26         1.0181    3.5045   -0.8331 H         1 <0>         0.0660
     70 H27        -0.4694    2.3356   -2.4708 H         1 <0>         0.0512
     71 H28        -1.4639    1.7294   -1.1616 H         1 <0>         0.0454
     72 H29        -4.5642   -3.1100    2.3009 H         1 <0>         0.0575
     73 H30        -4.8775   -1.4748    1.7520 H         1 <0>         0.0743
     74 H31        -1.0102    4.6987   -1.6923 H         1 <0>         0.0662
     75 H32        -0.6205    5.1846   -0.0362 H         1 <0>         0.0622
     76 H33         2.4001    1.7344   -1.1517 H         1 <0>         0.0321
     77 H34         1.9468    1.3120   -2.8125 H         1 <0>         0.0204
     78 H35        -2.3644   -1.1272    1.4485 H         1 <0>         0.0749
     79 H36        -2.6880   -3.5851   -2.1250 H         1 <0>         0.0719
     80 H37        -5.0090   -1.5561    4.1946 H         1 <0>         0.0609
     81 H38         0.0149    0.0012   -2.0158 H         1 <0>         0.1063
     82 H39        -4.6483    3.2647    0.8014 H         1 <0>         0.4792
     83 H40        -4.2916    3.6912    2.4457 H         1 <0>         0.4819
     84 H41        -0.8967    4.8209    1.8480 H         1 <0>         0.4802
     85 H42        -2.1276    4.5892    3.0559 H         1 <0>         0.4826
     86 H43         0.8216    0.7626    0.7549 H         1 <0>         0.3101
     87 H44        -2.9331   -3.6495    0.0592 H         1 <0>         0.3087
     88 H45        -2.9521    3.5724   -0.9038 H         1 <0>         0.4846
     89 H46        -6.1728   -8.1229    0.2511 H         1 <0>         0.4194
     90 H47         1.8515   -6.8926    0.0654 H         1 <0>         0.4036
     91 H48         2.8853   -0.3414   -0.7399 H         1 <0>         0.4114
     92 H49        -3.3270   -1.9893   -4.0469 H         1 <0>         0.3944
@<TRIPOS>BOND
     1    1    3 ar
     2    1    5 ar
     3    2    4 ar
     4    2    5 ar
     5    3    6 ar
     6    4    6 ar
     7    5   21 1
     8    6   40 1
     9    7   15 1
    10    7   34 am
    11    7   37 2
    12    8   27 1
    13    8   31 am
    14    8   38 2
    15    9   28 1
    16    9   35 am
    17    9   39 2
    18   10   32 1
    19   10   33 1
    20   10   36 1
    21   11   12 1
    22   11   16 1
    23   12   18 1
    24   13   15 1
    25   13   16 1
    26   14   17 1
    27   14   18 1
    28   15   31 1
    29   16   17 1
    30   17   31 1
    31   18   41 1
    32   19   29 1
    33   20   29 1
    34   21   28 1
    35   22   23 1
    36   22   25 1
    37   23   30 1
    38   24   27 1
    39   24   29 1
    40   25   36 1
    41   26   30 1
    42   26   42 1
    43   27   35 1
    44   28   43 1
    45   30   34 1
    46    1   44 1
    47    2   45 1
    48    3   46 1
    49    4   47 1
    50   11   48 1
    51   11   49 1
    52   12   50 1
    53   12   51 1
    54   13   52 1
    55   13   53 1
    56   14   54 1
    57   14   55 1
    58   15   56 1
    59   16   57 1
    60   17   58 1
    61   18   59 1
    62   19   60 1
    63   19   61 1
    64   19   62 1
    65   20   63 1
    66   20   64 1
    67   20   65 1
    68   21   66 1
    69   21   67 1
    70   22   68 1
    71   22   69 1
    72   23   70 1
    73   23   71 1
    74   24   72 1
    75   24   73 1
    76   25   74 1
    77   25   75 1
    78   26   76 1
    79   26   77 1
    80   27   78 1
    81   28   79 1
    82   29   80 1
    83   30   81 1
    84   32   82 1
    85   32   83 1
    86   33   84 1
    87   33   85 1
    88   34   86 1
    89   35   87 1
    90   36   88 1
    91   40   89 1
    92   41   90 1
    93   42   91 1
    94   43   92 1
@<TRIPOS>MOLECULE
1a2c_ligand_264
   92    94     0     0     0
SMALL
USER_CHARGES

mmff94s_NoEstat = 125.12
@<TRIPOS>ATOM
      1 C1          8.1670    0.0529    3.5645 C.ar      1 <0>        -0.0708
      2 C2          6.2214    0.2732    4.9798 C.ar      1 <0>        -0.0872
      3 C3          8.1370    1.4239    3.3098 C.ar      1 <0>        -0.2241
      4 C4          6.1914    1.6443    4.7251 C.ar      1 <0>        -0.1600
      5 C5          7.2088   -0.5041    4.3961 C.ar      1 <0>        -0.1356
      6 C6          7.1492    2.2197    3.8901 C.ar      1 <0>         0.1290
      7 C7          0.1755   -1.0766    0.1327 C.2       1 <0>         0.6664
      8 C8          2.3785   -0.9757    2.2764 C.2       1 <0>         0.6651
      9 C9          4.9366   -2.7533    4.0331 C.2       1 <0>         0.6454
     10 C10         0.0566    5.9382   -0.9679 C.cat     1 <0>         0.6349
     11 C11         2.4521   -5.3069   -0.2561 C.3       1 <0>        -0.0642
     12 C12         1.2413   -5.9691    0.3982 C.3       1 <0>        -0.0747
     13 C13         1.5734   -2.9393   -0.7647 C.3       1 <0>        -0.0873
     14 C14         1.0938   -4.1277    2.1072 C.3       1 <0>        -0.1371
     15 C15         1.5650   -1.6216    0.0133 C.3       1 <0>         0.0360
     16 C16         2.5597   -3.8106    0.0203 C.3       1 <0>        -0.0720
     17 C17         2.2934   -3.4012    1.4755 C.3       1 <0>         0.1201
     18 C18         1.1411   -5.6363    1.8853 C.3       1 <0>         0.1453
     19 C19         0.2658   -1.3152    5.2616 C.3       1 <0>        -0.0968
     20 C20         0.5109    0.5548    3.6177 C.3       1 <0>        -0.0986
     21 C21         7.2417   -1.9883    4.6724 C.3       1 <0>        -0.0191
     22 C22        -0.8392    2.2664   -0.8852 C.3       1 <0>        -0.1009
     23 C23        -1.6754    1.2905   -1.7214 C.3       1 <0>        -0.0942
     24 C24         2.5770   -0.3966    4.6867 C.3       1 <0>        -0.0988
     25 C25        -0.9003    3.6784   -1.4634 C.3       1 <0>         0.1966
     26 C26        -2.5783   -1.1036   -2.0263 C.3       1 <0>         0.1128
     27 C27         2.8496   -1.4560    3.6253 C.3       1 <0>         0.0786
     28 C28         6.4127   -2.7813    3.6567 C.3       1 <0>         0.0744
     29 C29         1.0824   -0.0766    4.8902 C.3       1 <0>        -0.0678
     30 C30        -1.7203   -0.1547   -1.1858 C.3       1 <0>         0.1065
     31 N1          2.0322   -1.9586    1.3590 N.am      1 <0>        -0.4315
     32 N2          0.8383    6.7654   -0.1682 N.pl3     1 <0>        -0.8671
     33 N3         -0.5783    6.4758   -2.0824 N.pl3     1 <0>        -0.8581
     34 N4         -0.3878   -0.7030   -1.0725 N.am      1 <0>        -0.5687
     35 N5          4.2458   -1.7091    3.4221 N.am      1 <0>        -0.5746
     36 N6         -0.0981    4.5744   -0.6649 N.pl3     1 <0>        -0.7533
     37 O1         -0.3509   -1.0007    1.2367 O.2       1 <0>        -0.5843
     38 O2          2.3230    0.2335    2.0409 O.2       1 <0>        -0.6812
     39 O3          4.4369   -3.5674    4.8063 O.2       1 <0>        -0.5788
     40 O4          7.1209    3.5579    3.6428 O.3       1 <0>        -0.4938
     41 O5          2.2611   -6.1715    2.5852 O.3       1 <0>        -0.6030
     42 O6         -2.5724   -2.4015   -1.4465 O.3       1 <0>        -0.5860
     43 O7          6.8471   -4.1336    3.6615 O.3       1 <0>        -0.6021
     44 H1          8.9402   -0.5589    3.1078 H         1 <0>         0.1412
     45 H2          5.4711   -0.1664    5.6319 H         1 <0>         0.1451
     46 H3          8.8859    1.8662    2.6587 H         1 <0>         0.1336
     47 H4          5.4198    2.2592    5.1809 H         1 <0>         0.1567
     48 H5          3.3605   -5.7937    0.1218 H         1 <0>         0.0649
     49 H6          2.4319   -5.4897   -1.3370 H         1 <0>         0.0476
     50 H7          0.3241   -5.6545   -0.1129 H         1 <0>         0.0641
     51 H8          1.3294   -7.0545    0.2691 H         1 <0>         0.0484
     52 H9          0.5754   -3.3919   -0.8000 H         1 <0>         0.0596
     53 H10         1.8977   -2.7914   -1.8003 H         1 <0>         0.0757
     54 H11         1.0807   -3.9085    3.1823 H         1 <0>         0.0782
     55 H12         0.1523   -3.7376    1.7002 H         1 <0>         0.0812
     56 H13         2.2202   -0.8626   -0.4249 H         1 <0>         0.0731
     57 H14         3.5726   -3.4842   -0.2571 H         1 <0>         0.0511
     58 H15         3.1875   -3.5701    2.0864 H         1 <0>         0.0753
     59 H16         0.2435   -6.1003    2.3075 H         1 <0>         0.0427
     60 H17        -0.8003   -1.0721    5.3268 H         1 <0>         0.0450
     61 H18         0.5656   -1.7135    6.2354 H         1 <0>         0.0406
     62 H19         0.3859   -2.1083    4.5157 H         1 <0>         0.0274
     63 H20         0.5734   -0.1347    2.7689 H         1 <0>         0.0476
     64 H21        -0.5410    0.8267    3.7565 H         1 <0>         0.0170
     65 H22         1.0580    1.4667    3.3557 H         1 <0>         0.0477
     66 H23         6.8694   -2.1736    5.6888 H         1 <0>         0.0814
     67 H24         8.2889   -2.3161    4.6731 H         1 <0>         0.0685
     68 H25        -1.2041    2.2870    0.1483 H         1 <0>         0.1016
     69 H26         0.2054    1.9349   -0.8467 H         1 <0>         0.0660
     70 H27        -1.2820    1.2733   -2.7469 H         1 <0>         0.0512
     71 H28        -2.7004    1.6751   -1.7996 H         1 <0>         0.0454
     72 H29         3.1135    0.5249    4.4229 H         1 <0>         0.0575
     73 H30         2.9989   -0.7249    5.6470 H         1 <0>         0.0743
     74 H31        -1.9343    4.0389   -1.4775 H         1 <0>         0.0662
     75 H32        -0.5286    3.6880   -2.4933 H         1 <0>         0.0622
     76 H33        -2.2157   -1.1795   -3.0567 H         1 <0>         0.0321
     77 H34        -3.6169   -0.7550   -2.0576 H         1 <0>         0.0204
     78 H35         2.3493   -2.4014    3.8315 H         1 <0>         0.0749
     79 H36         6.5324   -2.3855    2.6412 H         1 <0>         0.0719
     80 H37         0.9798    0.6574    5.6989 H         1 <0>         0.0609
     81 H38        -2.1562   -0.1031   -0.1797 H         1 <0>         0.1063
     82 H39         1.3192    6.4171    0.6569 H         1 <0>         0.4792
     83 H40         0.9489    7.7525   -0.3884 H         1 <0>         0.4819
     84 H41        -1.1572    5.8995   -2.6884 H         1 <0>         0.4802
     85 H42        -0.4794    7.4595   -2.3213 H         1 <0>         0.4826
     86 H43         0.1607   -0.8193   -1.9192 H         1 <0>         0.3101
     87 H44         4.7623   -1.0902    2.7952 H         1 <0>         0.3087
     88 H45         0.3928    4.2301    0.1692 H         1 <0>         0.4846
     89 H46         7.4453    3.7412    2.7467 H         1 <0>         0.4194
     90 H47         2.7873   -5.4145    2.8873 H         1 <0>         0.4036
     91 H48        -1.7464   -2.8287   -1.7250 H         1 <0>         0.4114
     92 H49         7.7099   -4.1501    4.1071 H         1 <0>         0.3944
@<TRIPOS>BOND
     1    1    3 ar
     2    1    5 ar
     3    2    4 ar
     4    2    5 ar
     5    3    6 ar
     6    4    6 ar
     7    5   21 1
     8    6   40 1
     9    7   15 1
    10    7   34 am
    11    7   37 2
    12    8   27 1
    13    8   31 am
    14    8   38 2
    15    9   28 1
    16    9   35 am
    17    9   39 2
    18   10   32 1
    19   10   33 1
    20   10   36 1
    21   11   12 1
    22   11   16 1
    23   12   18 1
    24   13   15 1
    25   13   16 1
    26   14   17 1
    27   14   18 1
    28   15   31 1
    29   16   17 1
    30   17   31 1
    31   18   41 1
    32   19   29 1
    33   20   29 1
    34   21   28 1
    35   22   23 1
    36   22   25 1
    37   23   30 1
    38   24   27 1
    39   24   29 1
    40   25   36 1
    41   26   30 1
    42   26   42 1
    43   27   35 1
    44   28   43 1
    45   30   34 1
    46    1   44 1
    47    2   45 1
    48    3   46 1
    49    4   47 1
    50   11   48 1
    51   11   49 1
    52   12   50 1
    53   12   51 1
    54   13   52 1
    55   13   53 1
    56   14   54 1
    57   14   55 1
    58   15   56 1
    59   16   57 1
    60   17   58 1
    61   18   59 1
    62   19   60 1
    63   19   61 1
    64   19   62 1
    65   20   63 1
    66   20   64 1
    67   20   65 1
    68   21   66 1
    69   21   67 1
    70   22   68 1
    71   22   69 1
    72   23   70 1
    73   23   71 1
    74   24   72 1
    75   24   73 1
    76   25   74 1
    77   25   75 1
    78   26   76 1
    79   26   77 1
    80   27   78 1
    81   28   79 1
    82   29   80 1
    83   30   81 1
    84   32   82 1
    85   32   83 1
    86   33   84 1
    87   33   85 1
    88   34   86 1
    89   35   87 1
    90   36   88 1
    91   40   89 1
    92   41   90 1
    93   42   91 1
    94   43   92 1
@<TRIPOS>MOLECULE
1a2c_ligand_265
   92    94     0     0     0
SMALL
USER_CHARGES

mmff94s_NoEstat = 125.22
@<TRIPOS>ATOM
      1 C1          9.6674   -2.4763    4.3146 C.ar      1 <0>        -0.0708
      2 C2          8.7518   -0.4141    3.4510 C.ar      1 <0>        -0.0872
      3 C3         10.9216   -2.1301    3.8119 C.ar      1 <0>        -0.2241
      4 C4         10.0060   -0.0678    2.9483 C.ar      1 <0>        -0.1600
      5 C5          8.5994   -1.6137    4.1275 C.ar      1 <0>        -0.1356
      6 C6         11.0909   -0.9258    3.1287 C.ar      1 <0>         0.1290
      7 C7          0.1755   -1.0766    0.1327 C.2       1 <0>         0.6664
      8 C8          2.3785   -0.9757    2.2764 C.2       1 <0>         0.6651
      9 C9          4.9366   -2.7533    4.0331 C.2       1 <0>         0.6454
     10 C10         0.0566    5.9382   -0.9679 C.cat     1 <0>         0.6349
     11 C11         2.4521   -5.3069   -0.2561 C.3       1 <0>        -0.0642
     12 C12         1.2413   -5.9691    0.3982 C.3       1 <0>        -0.0747
     13 C13         1.5734   -2.9393   -0.7647 C.3       1 <0>        -0.0873
     14 C14         1.0938   -4.1277    2.1072 C.3       1 <0>        -0.1371
     15 C15         1.5650   -1.6216    0.0133 C.3       1 <0>         0.0360
     16 C16         2.5597   -3.8106    0.0203 C.3       1 <0>        -0.0720
     17 C17         2.2934   -3.4012    1.4755 C.3       1 <0>         0.1201
     18 C18         1.1411   -5.6363    1.8853 C.3       1 <0>         0.1453
     19 C19         0.2658   -1.3152    5.2616 C.3       1 <0>        -0.0968
     20 C20         0.5109    0.5548    3.6177 C.3       1 <0>        -0.0986
     21 C21         7.2417   -1.9883    4.6724 C.3       1 <0>        -0.0191
     22 C22        -0.8392    2.2664   -0.8852 C.3       1 <0>        -0.1009
     23 C23        -1.6754    1.2905   -1.7214 C.3       1 <0>        -0.0942
     24 C24         2.5770   -0.3966    4.6867 C.3       1 <0>        -0.0988
     25 C25        -0.9003    3.6784   -1.4634 C.3       1 <0>         0.1966
     26 C26        -2.5783   -1.1036   -2.0263 C.3       1 <0>         0.1128
     27 C27         2.8496   -1.4560    3.6253 C.3       1 <0>         0.0786
     28 C28         6.4127   -2.7813    3.6567 C.3       1 <0>         0.0744
     29 C29         1.0824   -0.0766    4.8902 C.3       1 <0>        -0.0678
     30 C30        -1.7203   -0.1547   -1.1858 C.3       1 <0>         0.1065
     31 N1          2.0322   -1.9586    1.3590 N.am      1 <0>        -0.4315
     32 N2          0.8383    6.7654   -0.1682 N.pl3     1 <0>        -0.8671
     33 N3         -0.5783    6.4758   -2.0824 N.pl3     1 <0>        -0.8581
     34 N4         -0.3878   -0.7030   -1.0725 N.am      1 <0>        -0.5687
     35 N5          4.2458   -1.7091    3.4221 N.am      1 <0>        -0.5746
     36 N6         -0.0981    4.5744   -0.6649 N.pl3     1 <0>        -0.7533
     37 O1         -0.3509   -1.0007    1.2367 O.2       1 <0>        -0.5843
     38 O2          2.3230    0.2335    2.0409 O.2       1 <0>        -0.6812
     39 O3          4.4369   -3.5674    4.8063 O.2       1 <0>        -0.5788
     40 O4         12.3151   -0.5871    2.6396 O.3       1 <0>        -0.4938
     41 O5          2.2611   -6.1715    2.5852 O.3       1 <0>        -0.6030
     42 O6         -2.5724   -2.4015   -1.4465 O.3       1 <0>        -0.5860
     43 O7          6.8471   -4.1336    3.6615 O.3       1 <0>        -0.6021
     44 H1          9.5452   -3.4166    4.8453 H         1 <0>         0.1412
     45 H2          7.9122    0.2608    3.3060 H         1 <0>         0.1451
     46 H3         11.7627   -2.8025    3.9558 H         1 <0>         0.1336
     47 H4         10.1318    0.8723    2.4177 H         1 <0>         0.1567
     48 H5          3.3605   -5.7937    0.1218 H         1 <0>         0.0649
     49 H6          2.4319   -5.4897   -1.3370 H         1 <0>         0.0476
     50 H7          0.3241   -5.6545   -0.1129 H         1 <0>         0.0641
     51 H8          1.3294   -7.0545    0.2691 H         1 <0>         0.0484
     52 H9          0.5754   -3.3919   -0.8000 H         1 <0>         0.0596
     53 H10         1.8977   -2.7914   -1.8003 H         1 <0>         0.0757
     54 H11         1.0807   -3.9085    3.1823 H         1 <0>         0.0782
     55 H12         0.1523   -3.7376    1.7002 H         1 <0>         0.0812
     56 H13         2.2202   -0.8626   -0.4249 H         1 <0>         0.0731
     57 H14         3.5726   -3.4842   -0.2571 H         1 <0>         0.0511
     58 H15         3.1875   -3.5701    2.0864 H         1 <0>         0.0753
     59 H16         0.2435   -6.1003    2.3075 H         1 <0>         0.0427
     60 H17        -0.8003   -1.0721    5.3268 H         1 <0>         0.0450
     61 H18         0.5656   -1.7135    6.2354 H         1 <0>         0.0406
     62 H19         0.3859   -2.1083    4.5157 H         1 <0>         0.0274
     63 H20         0.5734   -0.1347    2.7689 H         1 <0>         0.0476
     64 H21        -0.5410    0.8267    3.7565 H         1 <0>         0.0170
     65 H22         1.0580    1.4667    3.3557 H         1 <0>         0.0477
     66 H23         6.7063   -1.0749    4.9640 H         1 <0>         0.0814
     67 H24         7.3869   -2.5585    5.5986 H         1 <0>         0.0685
     68 H25        -1.2041    2.2870    0.1483 H         1 <0>         0.1016
     69 H26         0.2054    1.9349   -0.8467 H         1 <0>         0.0660
     70 H27        -1.2820    1.2733   -2.7469 H         1 <0>         0.0512
     71 H28        -2.7004    1.6751   -1.7996 H         1 <0>         0.0454
     72 H29         3.1135    0.5249    4.4229 H         1 <0>         0.0575
     73 H30         2.9989   -0.7249    5.6470 H         1 <0>         0.0743
     74 H31        -1.9343    4.0389   -1.4775 H         1 <0>         0.0662
     75 H32        -0.5286    3.6880   -2.4933 H         1 <0>         0.0622
     76 H33        -2.2157   -1.1795   -3.0567 H         1 <0>         0.0321
     77 H34        -3.6169   -0.7550   -2.0576 H         1 <0>         0.0204
     78 H35         2.3493   -2.4014    3.8315 H         1 <0>         0.0749
     79 H36         6.5324   -2.3855    2.6412 H         1 <0>         0.0719
     80 H37         0.9798    0.6574    5.6989 H         1 <0>         0.0609
     81 H38        -2.1562   -0.1031   -0.1797 H         1 <0>         0.1063
     82 H39         1.3192    6.4171    0.6569 H         1 <0>         0.4792
     83 H40         0.9489    7.7525   -0.3884 H         1 <0>         0.4819
     84 H41        -1.1572    5.8995   -2.6884 H         1 <0>         0.4802
     85 H42        -0.4794    7.4595   -2.3213 H         1 <0>         0.4826
     86 H43         0.1607   -0.8193   -1.9192 H         1 <0>         0.3101
     87 H44         4.7623   -1.0902    2.7952 H         1 <0>         0.3087
     88 H45         0.3928    4.2301    0.1692 H         1 <0>         0.4846
     89 H46        12.8032   -1.3829    2.3744 H         1 <0>         0.4194
     90 H47         2.7873   -5.4145    2.8873 H         1 <0>         0.4036
     91 H48        -1.7464   -2.8287   -1.7250 H         1 <0>         0.4114
     92 H49         7.7099   -4.1501    4.1071 H         1 <0>         0.3944
@<TRIPOS>BOND
     1    1    3 ar
     2    1    5 ar
     3    2    4 ar
     4    2    5 ar
     5    3    6 ar
     6    4    6 ar
     7    5   21 1
     8    6   40 1
     9    7   15 1
    10    7   34 am
    11    7   37 2
    12    8   27 1
    13    8   31 am
    14    8   38 2
    15    9   28 1
    16    9   35 am
    17    9   39 2
    18   10   32 1
    19   10   33 1
    20   10   36 1
    21   11   12 1
    22   11   16 1
    23   12   18 1
    24   13   15 1
    25   13   16 1
    26   14   17 1
    27   14   18 1
    28   15   31 1
    29   16   17 1
    30   17   31 1
    31   18   41 1
    32   19   29 1
    33   20   29 1
    34   21   28 1
    35   22   23 1
    36   22   25 1
    37   23   30 1
    38   24   27 1
    39   24   29 1
    40   25   36 1
    41   26   30 1
    42   26   42 1
    43   27   35 1
    44   28   43 1
    45   30   34 1
    46    1   44 1
    47    2   45 1
    48    3   46 1
    49    4   47 1
    50   11   48 1
    51   11   49 1
    52   12   50 1
    53   12   51 1
    54   13   52 1
    55   13   53 1
    56   14   54 1
    57   14   55 1
    58   15   56 1
    59   16   57 1
    60   17   58 1
    61   18   59 1
    62   19   60 1
    63   19   61 1
    64   19   62 1
    65   20   63 1
    66   20   64 1
    67   20   65 1
    68   21   66 1
    69   21   67 1
    70   22   68 1
    71   22   69 1
    72   23   70 1
    73   23   71 1
    74   24   72 1
    75   24   73 1
    76   25   74 1
    77   25   75 1
    78   26   76 1
    79   26   77 1
    80   27   78 1
    81   28   79 1
    82   29   80 1
    83   30   81 1
    84   32   82 1
    85   32   83 1
    86   33   84 1
    87   33   85 1
    88   34   86 1
    89   35   87 1
    90   36   88 1
    91   40   89 1
    92   41   90 1
    93   42   91 1
    94   43   92 1
@<TRIPOS>MOLECULE
1a2c_ligand_266
   92    94     0     0     0
SMALL
USER_CHARGES

mmff94s_NoEstat = 125.77
@<TRIPOS>ATOM
      1 C1          8.1670    0.0529    3.5645 C.ar      1 <0>        -0.0708
      2 C2          6.2214    0.2732    4.9798 C.ar      1 <0>        -0.0872
      3 C3          8.1370    1.4239    3.3098 C.ar      1 <0>        -0.2241
      4 C4          6.1914    1.6443    4.7251 C.ar      1 <0>        -0.1600
      5 C5          7.2088   -0.5041    4.3961 C.ar      1 <0>        -0.1356
      6 C6          7.1492    2.2197    3.8901 C.ar      1 <0>         0.1290
      7 C7          0.1755   -1.0766    0.1327 C.2       1 <0>         0.6664
      8 C8          2.3785   -0.9757    2.2764 C.2       1 <0>         0.6651
      9 C9          4.9366   -2.7533    4.0331 C.2       1 <0>         0.6454
     10 C10        -0.9027    3.0370   -5.8579 C.cat     1 <0>         0.6349
     11 C11         2.4521   -5.3069   -0.2561 C.3       1 <0>        -0.0642
     12 C12         1.2413   -5.9691    0.3982 C.3       1 <0>        -0.0747
     13 C13         1.5734   -2.9393   -0.7647 C.3       1 <0>        -0.0873
     14 C14         1.0938   -4.1277    2.1072 C.3       1 <0>        -0.1371
     15 C15         1.5650   -1.6216    0.0133 C.3       1 <0>         0.0360
     16 C16         2.5597   -3.8106    0.0203 C.3       1 <0>        -0.0720
     17 C17         2.2934   -3.4012    1.4755 C.3       1 <0>         0.1201
     18 C18         1.1411   -5.6363    1.8853 C.3       1 <0>         0.1453
     19 C19         0.2658   -1.3152    5.2616 C.3       1 <0>        -0.0968
     20 C20         0.5109    0.5548    3.6177 C.3       1 <0>        -0.0986
     21 C21         7.2417   -1.9883    4.6724 C.3       1 <0>        -0.0191
     22 C22        -0.8155    2.0502   -2.2095 C.3       1 <0>        -0.1009
     23 C23        -1.7941    0.8762   -2.3301 C.3       1 <0>        -0.0942
     24 C24         2.5770   -0.3966    4.6867 C.3       1 <0>        -0.0988
     25 C25        -1.0015    3.0414   -3.3563 C.3       1 <0>         0.1966
     26 C26        -2.7214   -1.3050   -1.3187 C.3       1 <0>         0.1128
     27 C27         2.8496   -1.4560    3.6253 C.3       1 <0>         0.0786
     28 C28         6.4127   -2.7813    3.6567 C.3       1 <0>         0.0744
     29 C29         1.0824   -0.0766    4.8902 C.3       1 <0>        -0.0678
     30 C30        -1.7203   -0.1547   -1.1858 C.3       1 <0>         0.1065
     31 N1          2.0322   -1.9586    1.3590 N.am      1 <0>        -0.4315
     32 N2         -0.6764    2.3611   -7.0524 N.pl3     1 <0>        -0.8671
     33 N3         -1.2564    4.3814   -5.8961 N.pl3     1 <0>        -0.8581
     34 N4         -0.3878   -0.7030   -1.0725 N.am      1 <0>        -0.5687
     35 N5          4.2458   -1.7091    3.4221 N.am      1 <0>        -0.5746
     36 N6         -0.7789    2.3814   -4.6207 N.pl3     1 <0>        -0.7533
     37 O1         -0.3509   -1.0007    1.2367 O.2       1 <0>        -0.5843
     38 O2          2.3230    0.2335    2.0409 O.2       1 <0>        -0.6812
     39 O3          4.4369   -3.5674    4.8063 O.2       1 <0>        -0.5788
     40 O4          7.1209    3.5579    3.6428 O.3       1 <0>        -0.4938
     41 O5          2.2611   -6.1715    2.5852 O.3       1 <0>        -0.6030
     42 O6         -2.4752   -2.0231   -2.5206 O.3       1 <0>        -0.5860
     43 O7          6.8471   -4.1336    3.6615 O.3       1 <0>        -0.6021
     44 H1          8.9402   -0.5589    3.1078 H         1 <0>         0.1412
     45 H2          5.4711   -0.1664    5.6319 H         1 <0>         0.1451
     46 H3          8.8859    1.8662    2.6587 H         1 <0>         0.1336
     47 H4          5.4198    2.2592    5.1809 H         1 <0>         0.1567
     48 H5          3.3605   -5.7937    0.1218 H         1 <0>         0.0649
     49 H6          2.4319   -5.4897   -1.3370 H         1 <0>         0.0476
     50 H7          0.3241   -5.6545   -0.1129 H         1 <0>         0.0641
     51 H8          1.3294   -7.0545    0.2691 H         1 <0>         0.0484
     52 H9          0.5754   -3.3919   -0.8000 H         1 <0>         0.0596
     53 H10         1.8977   -2.7914   -1.8003 H         1 <0>         0.0757
     54 H11         1.0807   -3.9085    3.1823 H         1 <0>         0.0782
     55 H12         0.1523   -3.7376    1.7002 H         1 <0>         0.0812
     56 H13         2.2202   -0.8626   -0.4249 H         1 <0>         0.0731
     57 H14         3.5726   -3.4842   -0.2571 H         1 <0>         0.0511
     58 H15         3.1875   -3.5701    2.0864 H         1 <0>         0.0753
     59 H16         0.2435   -6.1003    2.3075 H         1 <0>         0.0427
     60 H17        -0.8003   -1.0721    5.3268 H         1 <0>         0.0450
     61 H18         0.5656   -1.7135    6.2354 H         1 <0>         0.0406
     62 H19         0.3859   -2.1083    4.5157 H         1 <0>         0.0274
     63 H20         0.5734   -0.1347    2.7689 H         1 <0>         0.0476
     64 H21        -0.5410    0.8267    3.7565 H         1 <0>         0.0170
     65 H22         1.0580    1.4667    3.3557 H         1 <0>         0.0477
     66 H23         6.8694   -2.1736    5.6888 H         1 <0>         0.0814
     67 H24         8.2889   -2.3161    4.6731 H         1 <0>         0.0685
     68 H25        -0.9672    2.5721   -1.2575 H         1 <0>         0.1016
     69 H26         0.2183    1.6845   -2.2100 H         1 <0>         0.0660
     70 H27        -1.6130    0.3584   -3.2819 H         1 <0>         0.0512
     71 H28        -2.8171    1.2691   -2.3922 H         1 <0>         0.0454
     72 H29         3.1135    0.5249    4.4229 H         1 <0>         0.0575
     73 H30         2.9989   -0.7249    5.6470 H         1 <0>         0.0743
     74 H31        -0.2967    3.8737   -3.2572 H         1 <0>         0.0662
     75 H32        -2.0142    3.4573   -3.3438 H         1 <0>         0.0622
     76 H33        -3.7565   -0.9478   -1.3308 H         1 <0>         0.0321
     77 H34        -2.6144   -2.0048   -0.4820 H         1 <0>         0.0204
     78 H35         2.3493   -2.4014    3.8315 H         1 <0>         0.0749
     79 H36         6.5324   -2.3855    2.6412 H         1 <0>         0.0719
     80 H37         0.9798    0.6574    5.6989 H         1 <0>         0.0609
     81 H38        -1.9472    0.3883   -0.2591 H         1 <0>         0.1063
     82 H39        -0.4141    1.3793   -7.0731 H         1 <0>         0.4792
     83 H40        -0.7658    2.8372   -7.9471 H         1 <0>         0.4819
     84 H41        -1.4289    4.9057   -5.0418 H         1 <0>         0.4802
     85 H42        -1.3529    4.8755   -6.7800 H         1 <0>         0.4826
     86 H43         0.1607   -0.8193   -1.9192 H         1 <0>         0.3101
     87 H44         4.7623   -1.0902    2.7952 H         1 <0>         0.3087
     88 H45        -0.5155    1.3889   -4.6505 H         1 <0>         0.4846
     89 H46         7.4453    3.7412    2.7467 H         1 <0>         0.4194
     90 H47         2.7873   -5.4145    2.8873 H         1 <0>         0.4036
     91 H48        -2.8906   -1.5183   -3.2383 H         1 <0>         0.4114
     92 H49         7.7099   -4.1501    4.1071 H         1 <0>         0.3944
@<TRIPOS>BOND
     1    1    3 ar
     2    1    5 ar
     3    2    4 ar
     4    2    5 ar
     5    3    6 ar
     6    4    6 ar
     7    5   21 1
     8    6   40 1
     9    7   15 1
    10    7   34 am
    11    7   37 2
    12    8   27 1
    13    8   31 am
    14    8   38 2
    15    9   28 1
    16    9   35 am
    17    9   39 2
    18   10   32 1
    19   10   33 1
    20   10   36 1
    21   11   12 1
    22   11   16 1
    23   12   18 1
    24   13   15 1
    25   13   16 1
    26   14   17 1
    27   14   18 1
    28   15   31 1
    29   16   17 1
    30   17   31 1
    31   18   41 1
    32   19   29 1
    33   20   29 1
    34   21   28 1
    35   22   23 1
    36   22   25 1
    37   23   30 1
    38   24   27 1
    39   24   29 1
    40   25   36 1
    41   26   30 1
    42   26   42 1
    43   27   35 1
    44   28   43 1
    45   30   34 1
    46    1   44 1
    47    2   45 1
    48    3   46 1
    49    4   47 1
    50   11   48 1
    51   11   49 1
    52   12   50 1
    53   12   51 1
    54   13   52 1
    55   13   53 1
    56   14   54 1
    57   14   55 1
    58   15   56 1
    59   16   57 1
    60   17   58 1
    61   18   59 1
    62   19   60 1
    63   19   61 1
    64   19   62 1
    65   20   63 1
    66   20   64 1
    67   20   65 1
    68   21   66 1
    69   21   67 1
    70   22   68 1
    71   22   69 1
    72   23   70 1
    73   23   71 1
    74   24   72 1
    75   24   73 1
    76   25   74 1
    77   25   75 1
    78   26   76 1
    79   26   77 1
    80   27   78 1
    81   28   79 1
    82   29   80 1
    83   30   81 1
    84   32   82 1
    85   32   83 1
    86   33   84 1
    87   33   85 1
    88   34   86 1
    89   35   87 1
    90   36   88 1
    91   40   89 1
    92   41   90 1
    93   42   91 1
    94   43   92 1
@<TRIPOS>MOLECULE
1a2c_ligand_267
   92    94     0     0     0
SMALL
USER_CHARGES

mmff94s_NoEstat = 125.78
@<TRIPOS>ATOM
      1 C1          7.9845    0.0816    2.2749 C.ar      1 <0>        -0.0708
      2 C2          6.1303    0.8743    3.6055 C.ar      1 <0>        -0.0872
      3 C3          7.8082    1.1484    1.3937 C.ar      1 <0>        -0.2241
      4 C4          5.9540    1.9410    2.7243 C.ar      1 <0>        -0.1600
      5 C5          7.1433   -0.0412    3.3690 C.ar      1 <0>        -0.1356
      6 C6          6.7929    2.0781    1.6184 C.ar      1 <0>         0.1290
      7 C7          0.1755   -1.0766    0.1327 C.2       1 <0>         0.6664
      8 C8          2.3785   -0.9757    2.2764 C.2       1 <0>         0.6651
      9 C9          5.0726   -2.2851    4.3841 C.2       1 <0>         0.6454
     10 C10        -0.3528    4.8369   -3.6143 C.cat     1 <0>         0.6349
     11 C11         2.4521   -5.3069   -0.2561 C.3       1 <0>        -0.0642
     12 C12         1.2413   -5.9691    0.3982 C.3       1 <0>        -0.0747
     13 C13         1.5734   -2.9393   -0.7647 C.3       1 <0>        -0.0873
     14 C14         1.0938   -4.1277    2.1072 C.3       1 <0>        -0.1371
     15 C15         1.5650   -1.6216    0.0133 C.3       1 <0>         0.0360
     16 C16         2.5597   -3.8106    0.0203 C.3       1 <0>        -0.0720
     17 C17         2.2934   -3.4012    1.4755 C.3       1 <0>         0.1201
     18 C18         1.1411   -5.6363    1.8853 C.3       1 <0>         0.1453
     19 C19         0.2658   -1.3152    5.2616 C.3       1 <0>        -0.0968
     20 C20         0.5109    0.5548    3.6177 C.3       1 <0>        -0.0986
     21 C21         7.3346   -1.1957    4.3233 C.3       1 <0>        -0.0191
     22 C22        -0.8392    2.2664   -0.8852 C.3       1 <0>        -0.1009
     23 C23        -1.6754    1.2905   -1.7214 C.3       1 <0>        -0.0942
     24 C24         2.5770   -0.3966    4.6867 C.3       1 <0>        -0.0988
     25 C25        -0.9003    3.6784   -1.4634 C.3       1 <0>         0.1966
     26 C26        -2.5783   -1.1036   -2.0263 C.3       1 <0>         0.1128
     27 C27         2.8496   -1.4560    3.6253 C.3       1 <0>         0.0786
     28 C28         6.5149   -2.4235    3.9131 C.3       1 <0>         0.0744
     29 C29         1.0824   -0.0766    4.8902 C.3       1 <0>        -0.0678
     30 C30        -1.7203   -0.1547   -1.1858 C.3       1 <0>         0.1065
     31 N1          2.0322   -1.9586    1.3590 N.am      1 <0>        -0.4315
     32 N2          0.1422    4.7922   -4.9135 N.pl3     1 <0>        -0.8671
     33 N3         -0.8082    6.0476   -3.1036 N.pl3     1 <0>        -0.8581
     34 N4         -0.3878   -0.7030   -1.0725 N.am      1 <0>        -0.5687
     35 N5          4.2458   -1.7091    3.4221 N.am      1 <0>        -0.5746
     36 N6         -0.3977    3.6803   -2.8168 N.pl3     1 <0>        -0.7533
     37 O1         -0.3509   -1.0007    1.2367 O.2       1 <0>        -0.5843
     38 O2          2.3230    0.2335    2.0409 O.2       1 <0>        -0.6812
     39 O3          4.7067   -2.6383    5.5030 O.2       1 <0>        -0.5788
     40 O4          6.6219    3.1200    0.7594 O.3       1 <0>        -0.4938
     41 O5          2.2611   -6.1715    2.5852 O.3       1 <0>        -0.6030
     42 O6         -2.5724   -2.4015   -1.4465 O.3       1 <0>        -0.5860
     43 O7          7.0737   -3.5771    4.5249 O.3       1 <0>        -0.6021
     44 H1          8.7780   -0.6378    2.0915 H         1 <0>         0.1412
     45 H2          5.4721    0.7756    4.4648 H         1 <0>         0.1451
     46 H3          8.4649    1.2497    0.5342 H         1 <0>         0.1336
     47 H4          5.1617    2.6627    2.9053 H         1 <0>         0.1567
     48 H5          3.3605   -5.7937    0.1218 H         1 <0>         0.0649
     49 H6          2.4319   -5.4897   -1.3370 H         1 <0>         0.0476
     50 H7          0.3241   -5.6545   -0.1129 H         1 <0>         0.0641
     51 H8          1.3294   -7.0545    0.2691 H         1 <0>         0.0484
     52 H9          0.5754   -3.3919   -0.8000 H         1 <0>         0.0596
     53 H10         1.8977   -2.7914   -1.8003 H         1 <0>         0.0757
     54 H11         1.0807   -3.9085    3.1823 H         1 <0>         0.0782
     55 H12         0.1523   -3.7376    1.7002 H         1 <0>         0.0812
     56 H13         2.2202   -0.8626   -0.4249 H         1 <0>         0.0731
     57 H14         3.5726   -3.4842   -0.2571 H         1 <0>         0.0511
     58 H15         3.1875   -3.5701    2.0864 H         1 <0>         0.0753
     59 H16         0.2435   -6.1003    2.3075 H         1 <0>         0.0427
     60 H17        -0.8003   -1.0721    5.3268 H         1 <0>         0.0450
     61 H18         0.5656   -1.7135    6.2354 H         1 <0>         0.0406
     62 H19         0.3859   -2.1083    4.5157 H         1 <0>         0.0274
     63 H20         0.5734   -0.1347    2.7689 H         1 <0>         0.0476
     64 H21        -0.5410    0.8267    3.7565 H         1 <0>         0.0170
     65 H22         1.0580    1.4667    3.3557 H         1 <0>         0.0477
     66 H23         7.0532   -0.8763    5.3357 H         1 <0>         0.0814
     67 H24         8.4054   -1.4304    4.3706 H         1 <0>         0.0685
     68 H25        -1.2041    2.2870    0.1483 H         1 <0>         0.1016
     69 H26         0.2054    1.9349   -0.8467 H         1 <0>         0.0660
     70 H27        -1.2820    1.2733   -2.7469 H         1 <0>         0.0512
     71 H28        -2.7004    1.6751   -1.7996 H         1 <0>         0.0454
     72 H29         3.1135    0.5249    4.4229 H         1 <0>         0.0575
     73 H30         2.9989   -0.7249    5.6470 H         1 <0>         0.0743
     74 H31        -0.2991    4.3638   -0.8567 H         1 <0>         0.0662
     75 H32        -1.9307    4.0486   -1.4645 H         1 <0>         0.0622
     76 H33        -2.2157   -1.1795   -3.0567 H         1 <0>         0.0321
     77 H34        -3.6169   -0.7550   -2.0576 H         1 <0>         0.0204
     78 H35         2.3493   -2.4014    3.8315 H         1 <0>         0.0749
     79 H36         6.5257   -2.5713    2.8267 H         1 <0>         0.0719
     80 H37         0.9798    0.6574    5.6989 H         1 <0>         0.0609
     81 H38        -2.1562   -0.1031   -0.1797 H         1 <0>         0.1063
     82 H39         0.4874    3.9306   -5.3278 H         1 <0>         0.4792
     83 H40         0.1747    5.6303   -5.4893 H         1 <0>         0.4819
     84 H41        -1.1762    6.1159   -2.1579 H         1 <0>         0.4802
     85 H42        -0.7862    6.8968   -3.6632 H         1 <0>         0.4826
     86 H43         0.1607   -0.8193   -1.9192 H         1 <0>         0.3101
     87 H44         4.6569   -1.4532    2.5231 H         1 <0>         0.3087
     88 H45        -0.0489    2.8135   -3.2436 H         1 <0>         0.4846
     89 H46         6.8643    2.8557   -0.1424 H         1 <0>         0.4194
     90 H47         2.7873   -5.4145    2.8873 H         1 <0>         0.4036
     91 H48        -1.7464   -2.8287   -1.7250 H         1 <0>         0.4114
     92 H49         7.9632   -3.3317    4.8278 H         1 <0>         0.3944
@<TRIPOS>BOND
     1    1    3 ar
     2    1    5 ar
     3    2    4 ar
     4    2    5 ar
     5    3    6 ar
     6    4    6 ar
     7    5   21 1
     8    6   40 1
     9    7   15 1
    10    7   34 am
    11    7   37 2
    12    8   27 1
    13    8   31 am
    14    8   38 2
    15    9   28 1
    16    9   35 am
    17    9   39 2
    18   10   32 1
    19   10   33 1
    20   10   36 1
    21   11   12 1
    22   11   16 1
    23   12   18 1
    24   13   15 1
    25   13   16 1
    26   14   17 1
    27   14   18 1
    28   15   31 1
    29   16   17 1
    30   17   31 1
    31   18   41 1
    32   19   29 1
    33   20   29 1
    34   21   28 1
    35   22   23 1
    36   22   25 1
    37   23   30 1
    38   24   27 1
    39   24   29 1
    40   25   36 1
    41   26   30 1
    42   26   42 1
    43   27   35 1
    44   28   43 1
    45   30   34 1
    46    1   44 1
    47    2   45 1
    48    3   46 1
    49    4   47 1
    50   11   48 1
    51   11   49 1
    52   12   50 1
    53   12   51 1
    54   13   52 1
    55   13   53 1
    56   14   54 1
    57   14   55 1
    58   15   56 1
    59   16   57 1
    60   17   58 1
    61   18   59 1
    62   19   60 1
    63   19   61 1
    64   19   62 1
    65   20   63 1
    66   20   64 1
    67   20   65 1
    68   21   66 1
    69   21   67 1
    70   22   68 1
    71   22   69 1
    72   23   70 1
    73   23   71 1
    74   24   72 1
    75   24   73 1
    76   25   74 1
    77   25   75 1
    78   26   76 1
    79   26   77 1
    80   27   78 1
    81   28   79 1
    82   29   80 1
    83   30   81 1
    84   32   82 1
    85   32   83 1
    86   33   84 1
    87   33   85 1
    88   34   86 1
    89   35   87 1
    90   36   88 1
    91   40   89 1
    92   41   90 1
    93   42   91 1
    94   43   92 1
@<TRIPOS>MOLECULE
1a2c_ligand_268
   92    94     0     0     0
SMALL
USER_CHARGES

mmff94s_NoEstat = 125.85
@<TRIPOS>ATOM
      1 C1          9.6674   -2.4763    4.3146 C.ar      1 <0>        -0.0708
      2 C2          8.7518   -0.4141    3.4510 C.ar      1 <0>        -0.0872
      3 C3         10.9216   -2.1301    3.8119 C.ar      1 <0>        -0.2241
      4 C4         10.0060   -0.0678    2.9483 C.ar      1 <0>        -0.1600
      5 C5          8.5994   -1.6137    4.1275 C.ar      1 <0>        -0.1356
      6 C6         11.0909   -0.9258    3.1287 C.ar      1 <0>         0.1290
      7 C7          0.1755   -1.0766    0.1327 C.2       1 <0>         0.6664
      8 C8          2.3785   -0.9757    2.2764 C.2       1 <0>         0.6651
      9 C9          4.9366   -2.7533    4.0331 C.2       1 <0>         0.6454
     10 C10        -0.9027    3.0370   -5.8579 C.cat     1 <0>         0.6349
     11 C11         2.4521   -5.3069   -0.2561 C.3       1 <0>        -0.0642
     12 C12         1.2413   -5.9691    0.3982 C.3       1 <0>        -0.0747
     13 C13         1.5734   -2.9393   -0.7647 C.3       1 <0>        -0.0873
     14 C14         1.0938   -4.1277    2.1072 C.3       1 <0>        -0.1371
     15 C15         1.5650   -1.6216    0.0133 C.3       1 <0>         0.0360
     16 C16         2.5597   -3.8106    0.0203 C.3       1 <0>        -0.0720
     17 C17         2.2934   -3.4012    1.4755 C.3       1 <0>         0.1201
     18 C18         1.1411   -5.6363    1.8853 C.3       1 <0>         0.1453
     19 C19         0.2658   -1.3152    5.2616 C.3       1 <0>        -0.0968
     20 C20         0.5109    0.5548    3.6177 C.3       1 <0>        -0.0986
     21 C21         7.2417   -1.9883    4.6724 C.3       1 <0>        -0.0191
     22 C22        -0.8155    2.0502   -2.2095 C.3       1 <0>        -0.1009
     23 C23        -1.7941    0.8762   -2.3301 C.3       1 <0>        -0.0942
     24 C24         2.5770   -0.3966    4.6867 C.3       1 <0>        -0.0988
     25 C25        -1.0015    3.0414   -3.3563 C.3       1 <0>         0.1966
     26 C26        -2.7214   -1.3050   -1.3187 C.3       1 <0>         0.1128
     27 C27         2.8496   -1.4560    3.6253 C.3       1 <0>         0.0786
     28 C28         6.4127   -2.7813    3.6567 C.3       1 <0>         0.0744
     29 C29         1.0824   -0.0766    4.8902 C.3       1 <0>        -0.0678
     30 C30        -1.7203   -0.1547   -1.1858 C.3       1 <0>         0.1065
     31 N1          2.0322   -1.9586    1.3590 N.am      1 <0>        -0.4315
     32 N2         -0.6764    2.3611   -7.0524 N.pl3     1 <0>        -0.8671
     33 N3         -1.2564    4.3814   -5.8961 N.pl3     1 <0>        -0.8581
     34 N4         -0.3878   -0.7030   -1.0725 N.am      1 <0>        -0.5687
     35 N5          4.2458   -1.7091    3.4221 N.am      1 <0>        -0.5746
     36 N6         -0.7789    2.3814   -4.6207 N.pl3     1 <0>        -0.7533
     37 O1         -0.3509   -1.0007    1.2367 O.2       1 <0>        -0.5843
     38 O2          2.3230    0.2335    2.0409 O.2       1 <0>        -0.6812
     39 O3          4.4369   -3.5674    4.8063 O.2       1 <0>        -0.5788
     40 O4         12.3151   -0.5871    2.6396 O.3       1 <0>        -0.4938
     41 O5          2.2611   -6.1715    2.5852 O.3       1 <0>        -0.6030
     42 O6         -2.4752   -2.0231   -2.5206 O.3       1 <0>        -0.5860
     43 O7          6.8471   -4.1336    3.6615 O.3       1 <0>        -0.6021
     44 H1          9.5452   -3.4166    4.8453 H         1 <0>         0.1412
     45 H2          7.9122    0.2608    3.3060 H         1 <0>         0.1451
     46 H3         11.7627   -2.8025    3.9558 H         1 <0>         0.1336
     47 H4         10.1318    0.8723    2.4177 H         1 <0>         0.1567
     48 H5          3.3605   -5.7937    0.1218 H         1 <0>         0.0649
     49 H6          2.4319   -5.4897   -1.3370 H         1 <0>         0.0476
     50 H7          0.3241   -5.6545   -0.1129 H         1 <0>         0.0641
     51 H8          1.3294   -7.0545    0.2691 H         1 <0>         0.0484
     52 H9          0.5754   -3.3919   -0.8000 H         1 <0>         0.0596
     53 H10         1.8977   -2.7914   -1.8003 H         1 <0>         0.0757
     54 H11         1.0807   -3.9085    3.1823 H         1 <0>         0.0782
     55 H12         0.1523   -3.7376    1.7002 H         1 <0>         0.0812
     56 H13         2.2202   -0.8626   -0.4249 H         1 <0>         0.0731
     57 H14         3.5726   -3.4842   -0.2571 H         1 <0>         0.0511
     58 H15         3.1875   -3.5701    2.0864 H         1 <0>         0.0753
     59 H16         0.2435   -6.1003    2.3075 H         1 <0>         0.0427
     60 H17        -0.8003   -1.0721    5.3268 H         1 <0>         0.0450
     61 H18         0.5656   -1.7135    6.2354 H         1 <0>         0.0406
     62 H19         0.3859   -2.1083    4.5157 H         1 <0>         0.0274
     63 H20         0.5734   -0.1347    2.7689 H         1 <0>         0.0476
     64 H21        -0.5410    0.8267    3.7565 H         1 <0>         0.0170
     65 H22         1.0580    1.4667    3.3557 H         1 <0>         0.0477
     66 H23         6.7063   -1.0749    4.9640 H         1 <0>         0.0814
     67 H24         7.3869   -2.5585    5.5986 H         1 <0>         0.0685
     68 H25        -0.9672    2.5721   -1.2575 H         1 <0>         0.1016
     69 H26         0.2183    1.6845   -2.2100 H         1 <0>         0.0660
     70 H27        -1.6130    0.3584   -3.2819 H         1 <0>         0.0512
     71 H28        -2.8171    1.2691   -2.3922 H         1 <0>         0.0454
     72 H29         3.1135    0.5249    4.4229 H         1 <0>         0.0575
     73 H30         2.9989   -0.7249    5.6470 H         1 <0>         0.0743
     74 H31        -0.2967    3.8737   -3.2572 H         1 <0>         0.0662
     75 H32        -2.0142    3.4573   -3.3438 H         1 <0>         0.0622
     76 H33        -3.7565   -0.9478   -1.3308 H         1 <0>         0.0321
     77 H34        -2.6144   -2.0048   -0.4820 H         1 <0>         0.0204
     78 H35         2.3493   -2.4014    3.8315 H         1 <0>         0.0749
     79 H36         6.5324   -2.3855    2.6412 H         1 <0>         0.0719
     80 H37         0.9798    0.6574    5.6989 H         1 <0>         0.0609
     81 H38        -1.9472    0.3883   -0.2591 H         1 <0>         0.1063
     82 H39        -0.4141    1.3793   -7.0731 H         1 <0>         0.4792
     83 H40        -0.7658    2.8372   -7.9471 H         1 <0>         0.4819
     84 H41        -1.4289    4.9057   -5.0418 H         1 <0>         0.4802
     85 H42        -1.3529    4.8755   -6.7800 H         1 <0>         0.4826
     86 H43         0.1607   -0.8193   -1.9192 H         1 <0>         0.3101
     87 H44         4.7623   -1.0902    2.7952 H         1 <0>         0.3087
     88 H45        -0.5155    1.3889   -4.6505 H         1 <0>         0.4846
     89 H46        12.8032   -1.3829    2.3744 H         1 <0>         0.4194
     90 H47         2.7873   -5.4145    2.8873 H         1 <0>         0.4036
     91 H48        -2.8906   -1.5183   -3.2383 H         1 <0>         0.4114
     92 H49         7.7099   -4.1501    4.1071 H         1 <0>         0.3944
@<TRIPOS>BOND
     1    1    3 ar
     2    1    5 ar
     3    2    4 ar
     4    2    5 ar
     5    3    6 ar
     6    4    6 ar
     7    5   21 1
     8    6   40 1
     9    7   15 1
    10    7   34 am
    11    7   37 2
    12    8   27 1
    13    8   31 am
    14    8   38 2
    15    9   28 1
    16    9   35 am
    17    9   39 2
    18   10   32 1
    19   10   33 1
    20   10   36 1
    21   11   12 1
    22   11   16 1
    23   12   18 1
    24   13   15 1
    25   13   16 1
    26   14   17 1
    27   14   18 1
    28   15   31 1
    29   16   17 1
    30   17   31 1
    31   18   41 1
    32   19   29 1
    33   20   29 1
    34   21   28 1
    35   22   23 1
    36   22   25 1
    37   23   30 1
    38   24   27 1
    39   24   29 1
    40   25   36 1
    41   26   30 1
    42   26   42 1
    43   27   35 1
    44   28   43 1
    45   30   34 1
    46    1   44 1
    47    2   45 1
    48    3   46 1
    49    4   47 1
    50   11   48 1
    51   11   49 1
    52   12   50 1
    53   12   51 1
    54   13   52 1
    55   13   53 1
    56   14   54 1
    57   14   55 1
    58   15   56 1
    59   16   57 1
    60   17   58 1
    61   18   59 1
    62   19   60 1
    63   19   61 1
    64   19   62 1
    65   20   63 1
    66   20   64 1
    67   20   65 1
    68   21   66 1
    69   21   67 1
    70   22   68 1
    71   22   69 1
    72   23   70 1
    73   23   71 1
    74   24   72 1
    75   24   73 1
    76   25   74 1
    77   25   75 1
    78   26   76 1
    79   26   77 1
    80   27   78 1
    81   28   79 1
    82   29   80 1
    83   30   81 1
    84   32   82 1
    85   32   83 1
    86   33   84 1
    87   33   85 1
    88   34   86 1
    89   35   87 1
    90   36   88 1
    91   40   89 1
    92   41   90 1
    93   42   91 1
    94   43   92 1
@<TRIPOS>MOLECULE
1a2c_ligand_269
   92    94     0     0     0
SMALL
USER_CHARGES

mmff94s_NoEstat = 125.86
@<TRIPOS>ATOM
      1 C1         -5.5012   -6.8146   -2.1504 C.ar      1 <0>        -0.0708
      2 C2         -3.4323   -6.5023   -3.3583 C.ar      1 <0>        -0.0872
      3 C3         -5.9204   -7.7389   -3.1072 C.ar      1 <0>        -0.2241
      4 C4         -3.8515   -7.4266   -4.3152 C.ar      1 <0>        -0.1600
      5 C5         -4.2629   -6.2087   -2.2887 C.ar      1 <0>        -0.1356
      6 C6         -5.0955   -8.0449   -4.1897 C.ar      1 <0>         0.1290
      7 C7         -0.0512   -1.0561    0.2993 C.2       1 <0>         0.6664
      8 C8         -1.8469   -3.0457    2.1630 C.2       1 <0>         0.6651
      9 C9         -3.4040   -2.7670   -0.8258 C.2       1 <0>         0.6454
     10 C10        -4.7581    2.2187   -1.0418 C.cat     1 <0>         0.6349
     11 C11         2.5186   -3.1911    0.6823 C.3       1 <0>        -0.0642
     12 C12         2.4580   -4.6414    0.2376 C.3       1 <0>        -0.0747
     13 C13         1.4874   -1.4827    2.2418 C.3       1 <0>        -0.0873
     14 C14         0.4946   -5.0934    1.7133 C.3       1 <0>        -0.1371
     15 C15         0.0412   -1.4176    1.7503 C.3       1 <0>         0.0360
     16 C16         1.8865   -2.9529    2.0632 C.3       1 <0>        -0.0720
     17 C17         0.5665   -3.7001    2.3454 C.3       1 <0>         0.1201
     18 C18         1.0248   -5.1525    0.2868 C.3       1 <0>         0.1453
     19 C19        -5.7275   -1.2982    0.9287 C.3       1 <0>        -0.0968
     20 C20        -4.2097    0.6462    1.3473 C.3       1 <0>        -0.0986
     21 C21        -3.8088   -5.2086   -1.2523 C.3       1 <0>        -0.0191
     22 C22        -1.0374    2.7415   -0.6235 C.3       1 <0>        -0.1009
     23 C23         0.2513    2.2726   -1.3090 C.3       1 <0>        -0.0942
     24 C24        -3.7699   -1.5150    2.5525 C.3       1 <0>        -0.0988
     25 C25        -2.2684    2.1304   -1.2894 C.3       1 <0>         0.1966
     26 C26         1.7383    0.3016   -2.0469 C.3       1 <0>         0.1128
     27 C27        -2.8325   -2.1090    1.5076 C.3       1 <0>         0.0786
     28 C28        -4.2317   -3.7794   -1.6077 C.3       1 <0>         0.0744
     29 C29        -4.8597   -0.5919    1.9712 C.3       1 <0>        -0.0678
     30 C30         0.4555    0.7445   -1.3388 C.3       1 <0>         0.1065
     31 N1         -0.4979   -2.7598    1.9615 N.am      1 <0>        -0.4315
     32 N2         -5.8857    2.6895   -0.3772 N.pl3     1 <0>        -0.8671
     33 N3         -4.9183    1.3635   -2.1267 N.pl3     1 <0>        -0.8581
     34 N4          0.4455    0.1980   -0.0008 N.am      1 <0>        -0.5687
     35 N5         -3.5026   -2.9419    0.5527 N.am      1 <0>        -0.5746
     36 N6         -3.4671    2.5948   -0.6325 N.pl3     1 <0>        -0.7533
     37 O1         -0.5362   -1.8555   -0.4928 O.2       1 <0>        -0.5843
     38 O2         -2.2659   -3.9924    2.8322 O.2       1 <0>        -0.6812
     39 O3         -2.7407   -1.8909   -1.3761 O.2       1 <0>        -0.5788
     40 O4         -5.5038   -8.9480   -5.1226 O.3       1 <0>        -0.4938
     41 O5          0.9879   -6.5072   -0.1510 O.3       1 <0>        -0.6030
     42 O6          1.7296    0.7591   -3.3929 O.3       1 <0>        -0.5860
     43 O7         -5.5970   -3.6017   -1.2587 O.3       1 <0>        -0.6021
     44 H1         -6.1508   -6.5826   -1.3107 H         1 <0>         0.1412
     45 H2         -2.4612   -6.0256   -3.4640 H         1 <0>         0.1451
     46 H3         -6.8903   -8.2172   -3.0039 H         1 <0>         0.1336
     47 H4         -3.2039   -7.6615   -5.1558 H         1 <0>         0.1567
     48 H5          3.5627   -2.8549    0.7003 H         1 <0>         0.0649
     49 H6          2.0259   -2.5829   -0.0837 H         1 <0>         0.0476
     50 H7          2.8567   -4.7427   -0.7790 H         1 <0>         0.0641
     51 H8          3.1032   -5.2618    0.8729 H         1 <0>         0.0484
     52 H9          2.1569   -0.7868    1.7257 H         1 <0>         0.0596
     53 H10         1.5124   -1.2395    3.3116 H         1 <0>         0.0757
     54 H11         1.0921   -5.7802    2.3299 H         1 <0>         0.0782
     55 H12        -0.5175   -5.5090    1.7393 H         1 <0>         0.0812
     56 H13        -0.5378   -0.6778    2.3126 H         1 <0>         0.0731
     57 H14         2.6304   -3.2407    2.8169 H         1 <0>         0.0511
     58 H15         0.4523   -3.8218    3.4319 H         1 <0>         0.0753
     59 H16         0.3841   -4.5700   -0.3844 H         1 <0>         0.0427
     60 H17        -6.4424   -0.5993    0.4810 H         1 <0>         0.0450
     61 H18        -6.3080   -2.1101    1.3767 H         1 <0>         0.0406
     62 H19        -5.1167   -1.7184    0.1225 H         1 <0>         0.0274
     63 H20        -3.5507    0.3732    0.5159 H         1 <0>         0.0476
     64 H21        -4.9709    1.3343    0.9644 H         1 <0>         0.0170
     65 H22        -3.6139    1.1889    2.0888 H         1 <0>         0.0477
     66 H23        -2.7165   -5.2642   -1.1527 H         1 <0>         0.0814
     67 H24        -4.2138   -5.5125   -0.2789 H         1 <0>         0.0685
     68 H25        -1.0263    2.4588    0.4356 H         1 <0>         0.1016
     69 H26        -1.1105    3.8350   -0.6596 H         1 <0>         0.0660
     70 H27         1.1110    2.7323   -0.8028 H         1 <0>         0.0512
     71 H28         0.2685    2.6560   -2.3373 H         1 <0>         0.0454
     72 H29        -3.1790   -0.9587    3.2928 H         1 <0>         0.0575
     73 H30        -4.2588   -2.3274    3.1083 H         1 <0>         0.0743
     74 H31        -2.2283    1.0375   -1.2319 H         1 <0>         0.0662
     75 H32        -2.3103    2.4085   -2.3475 H         1 <0>         0.0622
     76 H33         1.8500   -0.7877   -2.0488 H         1 <0>         0.0321
     77 H34         2.6170    0.7313   -1.5524 H         1 <0>         0.0204
     78 H35        -2.2612   -1.3523    0.9714 H         1 <0>         0.0749
     79 H36        -4.1226   -3.5812   -2.6805 H         1 <0>         0.0719
     80 H37        -5.5109   -0.2494    2.7849 H         1 <0>         0.0609
     81 H38        -0.3978    0.3245   -1.8868 H         1 <0>         0.1063
     82 H39        -5.8171    3.3144    0.4215 H         1 <0>         0.4792
     83 H40        -6.8195    2.4159   -0.6742 H         1 <0>         0.4819
     84 H41        -4.1156    1.0007   -2.6351 H         1 <0>         0.4802
     85 H42        -5.8430    1.0792   -2.4410 H         1 <0>         0.4826
     86 H43         0.8216    0.7626    0.7549 H         1 <0>         0.3101
     87 H44        -4.0841   -3.7053    0.9020 H         1 <0>         0.3087
     88 H45        -3.4066    3.2281    0.1740 H         1 <0>         0.4846
     89 H46        -6.4681   -8.9121   -5.2259 H         1 <0>         0.4194
     90 H47         1.8515   -6.8926    0.0654 H         1 <0>         0.4036
     91 H48         1.1820    0.1356   -3.8968 H         1 <0>         0.4114
     92 H49        -5.9717   -4.4883   -1.1291 H         1 <0>         0.3944
@<TRIPOS>BOND
     1    1    3 ar
     2    1    5 ar
     3    2    4 ar
     4    2    5 ar
     5    3    6 ar
     6    4    6 ar
     7    5   21 1
     8    6   40 1
     9    7   15 1
    10    7   34 am
    11    7   37 2
    12    8   27 1
    13    8   31 am
    14    8   38 2
    15    9   28 1
    16    9   35 am
    17    9   39 2
    18   10   32 1
    19   10   33 1
    20   10   36 1
    21   11   12 1
    22   11   16 1
    23   12   18 1
    24   13   15 1
    25   13   16 1
    26   14   17 1
    27   14   18 1
    28   15   31 1
    29   16   17 1
    30   17   31 1
    31   18   41 1
    32   19   29 1
    33   20   29 1
    34   21   28 1
    35   22   23 1
    36   22   25 1
    37   23   30 1
    38   24   27 1
    39   24   29 1
    40   25   36 1
    41   26   30 1
    42   26   42 1
    43   27   35 1
    44   28   43 1
    45   30   34 1
    46    1   44 1
    47    2   45 1
    48    3   46 1
    49    4   47 1
    50   11   48 1
    51   11   49 1
    52   12   50 1
    53   12   51 1
    54   13   52 1
    55   13   53 1
    56   14   54 1
    57   14   55 1
    58   15   56 1
    59   16   57 1
    60   17   58 1
    61   18   59 1
    62   19   60 1
    63   19   61 1
    64   19   62 1
    65   20   63 1
    66   20   64 1
    67   20   65 1
    68   21   66 1
    69   21   67 1
    70   22   68 1
    71   22   69 1
    72   23   70 1
    73   23   71 1
    74   24   72 1
    75   24   73 1
    76   25   74 1
    77   25   75 1
    78   26   76 1
    79   26   77 1
    80   27   78 1
    81   28   79 1
    82   29   80 1
    83   30   81 1
    84   32   82 1
    85   32   83 1
    86   33   84 1
    87   33   85 1
    88   34   86 1
    89   35   87 1
    90   36   88 1
    91   40   89 1
    92   41   90 1
    93   42   91 1
    94   43   92 1
@<TRIPOS>MOLECULE
1a2c_ligand_270
   92    94     0     0     0
SMALL
USER_CHARGES

mmff94s_NoEstat = 125.89
@<TRIPOS>ATOM
      1 C1          9.5962   -1.2772    3.3561 C.ar      1 <0>        -0.0708
      2 C2          8.2185   -1.0798    1.3813 C.ar      1 <0>        -0.0872
      3 C3         10.7341   -1.3612    2.5537 C.ar      1 <0>        -0.2241
      4 C4          9.3564   -1.1638    0.5789 C.ar      1 <0>        -0.1600
      5 C5          8.3537   -1.1375    2.7591 C.ar      1 <0>        -0.1356
      6 C6         10.6142   -1.3046    1.1652 C.ar      1 <0>         0.1290
      7 C7          0.1755   -1.0766    0.1327 C.2       1 <0>         0.6664
      8 C8          2.3785   -0.9757    2.2764 C.2       1 <0>         0.6651
      9 C9          5.0726   -2.2851    4.3841 C.2       1 <0>         0.6454
     10 C10         0.0177    5.1861   -4.1496 C.cat     1 <0>         0.6349
     11 C11         2.4521   -5.3069   -0.2561 C.3       1 <0>        -0.0642
     12 C12         1.2413   -5.9691    0.3982 C.3       1 <0>        -0.0747
     13 C13         1.5734   -2.9393   -0.7647 C.3       1 <0>        -0.0873
     14 C14         1.0938   -4.1277    2.1072 C.3       1 <0>        -0.1371
     15 C15         1.5650   -1.6216    0.0133 C.3       1 <0>         0.0360
     16 C16         2.5597   -3.8106    0.0203 C.3       1 <0>        -0.0720
     17 C17         2.2934   -3.4012    1.4755 C.3       1 <0>         0.1201
     18 C18         1.1411   -5.6363    1.8853 C.3       1 <0>         0.1453
     19 C19         0.2658   -1.3152    5.2616 C.3       1 <0>        -0.0968
     20 C20         0.5109    0.5548    3.6177 C.3       1 <0>        -0.0986
     21 C21         7.1218   -1.0458    3.6277 C.3       1 <0>        -0.0191
     22 C22        -0.8155    2.0502   -2.2095 C.3       1 <0>        -0.1009
     23 C23        -1.7941    0.8762   -2.3301 C.3       1 <0>        -0.0942
     24 C24         2.5770   -0.3966    4.6867 C.3       1 <0>        -0.0988
     25 C25        -1.0015    3.0414   -3.3563 C.3       1 <0>         0.1966
     26 C26        -2.7214   -1.3050   -1.3187 C.3       1 <0>         0.1128
     27 C27         2.8496   -1.4560    3.6253 C.3       1 <0>         0.0786
     28 C28         6.5149   -2.4235    3.9131 C.3       1 <0>         0.0744
     29 C29         1.0824   -0.0766    4.8902 C.3       1 <0>        -0.0678
     30 C30        -1.7203   -0.1547   -1.1858 C.3       1 <0>         0.1065
     31 N1          2.0322   -1.9586    1.3590 N.am      1 <0>        -0.4315
     32 N2          0.9368    6.2166   -3.9817 N.pl3     1 <0>        -0.8671
     33 N3         -0.8308    5.2073   -5.2513 N.pl3     1 <0>        -0.8581
     34 N4         -0.3878   -0.7030   -1.0725 N.am      1 <0>        -0.5687
     35 N5          4.2458   -1.7091    3.4221 N.am      1 <0>        -0.5746
     36 N6         -0.0630    4.1305   -3.2250 N.pl3     1 <0>        -0.7533
     37 O1         -0.3509   -1.0007    1.2367 O.2       1 <0>        -0.5843
     38 O2          2.3230    0.2335    2.0409 O.2       1 <0>        -0.6812
     39 O3          4.7067   -2.6383    5.5030 O.2       1 <0>        -0.5788
     40 O4         11.7248   -1.3850    0.3823 O.3       1 <0>        -0.4938
     41 O5          2.2611   -6.1715    2.5852 O.3       1 <0>        -0.6030
     42 O6         -2.4752   -2.0231   -2.5206 O.3       1 <0>        -0.5860
     43 O7          7.2613   -3.0520    4.9452 O.3       1 <0>        -0.6021
     44 H1          9.6996   -1.3224    4.4368 H         1 <0>         0.1412
     45 H2          7.2424   -0.9699    0.9158 H         1 <0>         0.1451
     46 H3         11.7111   -1.4706    3.0163 H         1 <0>         0.1336
     47 H4          9.2566   -1.1182   -0.5023 H         1 <0>         0.1567
     48 H5          3.3605   -5.7937    0.1218 H         1 <0>         0.0649
     49 H6          2.4319   -5.4897   -1.3370 H         1 <0>         0.0476
     50 H7          0.3241   -5.6545   -0.1129 H         1 <0>         0.0641
     51 H8          1.3294   -7.0545    0.2691 H         1 <0>         0.0484
     52 H9          0.5754   -3.3919   -0.8000 H         1 <0>         0.0596
     53 H10         1.8977   -2.7914   -1.8003 H         1 <0>         0.0757
     54 H11         1.0807   -3.9085    3.1823 H         1 <0>         0.0782
     55 H12         0.1523   -3.7376    1.7002 H         1 <0>         0.0812
     56 H13         2.2202   -0.8626   -0.4249 H         1 <0>         0.0731
     57 H14         3.5726   -3.4842   -0.2571 H         1 <0>         0.0511
     58 H15         3.1875   -3.5701    2.0864 H         1 <0>         0.0753
     59 H16         0.2435   -6.1003    2.3075 H         1 <0>         0.0427
     60 H17        -0.8003   -1.0721    5.3268 H         1 <0>         0.0450
     61 H18         0.5656   -1.7135    6.2354 H         1 <0>         0.0406
     62 H19         0.3859   -2.1083    4.5157 H         1 <0>         0.0274
     63 H20         0.5734   -0.1347    2.7689 H         1 <0>         0.0476
     64 H21        -0.5410    0.8267    3.7565 H         1 <0>         0.0170
     65 H22         1.0580    1.4667    3.3557 H         1 <0>         0.0477
     66 H23         6.3806   -0.4028    3.1345 H         1 <0>         0.0814
     67 H24         7.3930   -0.5306    4.5578 H         1 <0>         0.0685
     68 H25        -0.9672    2.5721   -1.2575 H         1 <0>         0.1016
     69 H26         0.2183    1.6845   -2.2100 H         1 <0>         0.0660
     70 H27        -1.6130    0.3584   -3.2819 H         1 <0>         0.0512
     71 H28        -2.8171    1.2691   -2.3922 H         1 <0>         0.0454
     72 H29         3.1135    0.5249    4.4229 H         1 <0>         0.0575
     73 H30         2.9989   -0.7249    5.6470 H         1 <0>         0.0743
     74 H31        -2.0203    3.4431   -3.3499 H         1 <0>         0.0662
     75 H32        -0.8427    2.5473   -4.3203 H         1 <0>         0.0622
     76 H33        -3.7565   -0.9478   -1.3308 H         1 <0>         0.0321
     77 H34        -2.6144   -2.0048   -0.4820 H         1 <0>         0.0204
     78 H35         2.3493   -2.4014    3.8315 H         1 <0>         0.0749
     79 H36         6.5434   -3.0684    3.0268 H         1 <0>         0.0719
     80 H37         0.9798    0.6574    5.6989 H         1 <0>         0.0609
     81 H38        -1.9472    0.3883   -0.2591 H         1 <0>         0.1063
     82 H39         1.5752    6.2439   -3.1911 H         1 <0>         0.4792
     83 H40         0.9937    6.9803   -4.6514 H         1 <0>         0.4819
     84 H41        -1.5145    4.4701   -5.4045 H         1 <0>         0.4802
     85 H42        -0.7890    5.9606   -5.9336 H         1 <0>         0.4826
     86 H43         0.1607   -0.8193   -1.9192 H         1 <0>         0.3101
     87 H44         4.6569   -1.4532    2.5231 H         1 <0>         0.3087
     88 H45         0.5869    4.1646   -2.4302 H         1 <0>         0.4846
     89 H46        12.3916   -1.9518    0.8018 H         1 <0>         0.4194
     90 H47         2.7873   -5.4145    2.8873 H         1 <0>         0.4036
     91 H48        -2.8906   -1.5183   -3.2383 H         1 <0>         0.4114
     92 H49         8.0995   -2.5674    5.0209 H         1 <0>         0.3944
@<TRIPOS>BOND
     1    1    3 ar
     2    1    5 ar
     3    2    4 ar
     4    2    5 ar
     5    3    6 ar
     6    4    6 ar
     7    5   21 1
     8    6   40 1
     9    7   15 1
    10    7   34 am
    11    7   37 2
    12    8   27 1
    13    8   31 am
    14    8   38 2
    15    9   28 1
    16    9   35 am
    17    9   39 2
    18   10   32 1
    19   10   33 1
    20   10   36 1
    21   11   12 1
    22   11   16 1
    23   12   18 1
    24   13   15 1
    25   13   16 1
    26   14   17 1
    27   14   18 1
    28   15   31 1
    29   16   17 1
    30   17   31 1
    31   18   41 1
    32   19   29 1
    33   20   29 1
    34   21   28 1
    35   22   23 1
    36   22   25 1
    37   23   30 1
    38   24   27 1
    39   24   29 1
    40   25   36 1
    41   26   30 1
    42   26   42 1
    43   27   35 1
    44   28   43 1
    45   30   34 1
    46    1   44 1
    47    2   45 1
    48    3   46 1
    49    4   47 1
    50   11   48 1
    51   11   49 1
    52   12   50 1
    53   12   51 1
    54   13   52 1
    55   13   53 1
    56   14   54 1
    57   14   55 1
    58   15   56 1
    59   16   57 1
    60   17   58 1
    61   18   59 1
    62   19   60 1
    63   19   61 1
    64   19   62 1
    65   20   63 1
    66   20   64 1
    67   20   65 1
    68   21   66 1
    69   21   67 1
    70   22   68 1
    71   22   69 1
    72   23   70 1
    73   23   71 1
    74   24   72 1
    75   24   73 1
    76   25   74 1
    77   25   75 1
    78   26   76 1
    79   26   77 1
    80   27   78 1
    81   28   79 1
    82   29   80 1
    83   30   81 1
    84   32   82 1
    85   32   83 1
    86   33   84 1
    87   33   85 1
    88   34   86 1
    89   35   87 1
    90   36   88 1
    91   40   89 1
    92   41   90 1
    93   42   91 1
    94   43   92 1
@<TRIPOS>MOLECULE
1a2c_ligand_271
   92    94     0     0     0
SMALL
USER_CHARGES

mmff94s_NoEstat = 125.95
@<TRIPOS>ATOM
      1 C1         -6.2610   -3.0964   -3.6304 C.ar      1 <0>        -0.0708
      2 C2         -6.2318   -1.1340   -2.2214 C.ar      1 <0>        -0.0872
      3 C3         -7.6318   -3.2331   -3.4114 C.ar      1 <0>        -0.2241
      4 C4         -7.6026   -1.2708   -2.0024 C.ar      1 <0>        -0.1600
      5 C5         -5.5795   -2.0487   -3.0325 C.ar      1 <0>        -0.1356
      6 C6         -8.3026   -2.3203   -2.5974 C.ar      1 <0>         0.1290
      7 C7         -0.0512   -1.0561    0.2993 C.2       1 <0>         0.6664
      8 C8         -1.8469   -3.0457    2.1630 C.2       1 <0>         0.6651
      9 C9         -3.1350   -1.8416   -0.9503 C.2       1 <0>         0.6454
     10 C10         0.1087    6.2839    0.0320 C.cat     1 <0>         0.6349
     11 C11         2.5186   -3.1911    0.6823 C.3       1 <0>        -0.0642
     12 C12         2.4580   -4.6414    0.2376 C.3       1 <0>        -0.0747
     13 C13         1.4874   -1.4827    2.2418 C.3       1 <0>        -0.0873
     14 C14         0.4946   -5.0934    1.7133 C.3       1 <0>        -0.1371
     15 C15         0.0412   -1.4176    1.7503 C.3       1 <0>         0.0360
     16 C16         1.8865   -2.9529    2.0632 C.3       1 <0>        -0.0720
     17 C17         0.5665   -3.7001    2.3454 C.3       1 <0>         0.1201
     18 C18         1.0248   -5.1525    0.2868 C.3       1 <0>         0.1453
     19 C19        -3.4345   -0.1597    3.7904 C.3       1 <0>        -0.0968
     20 C20        -3.1391   -2.5257    4.5483 C.3       1 <0>        -0.0986
     21 C21        -4.0956   -1.9002   -3.2701 C.3       1 <0>        -0.0191
     22 C22        -1.0374    2.7415   -0.6235 C.3       1 <0>        -0.1009
     23 C23         0.2513    2.2726   -1.3090 C.3       1 <0>        -0.0942
     24 C24        -4.1436   -2.0954    2.2850 C.3       1 <0>        -0.0988
     25 C25        -1.1758    4.2607   -0.6924 C.3       1 <0>         0.1966
     26 C26         1.7383    0.3016   -2.0469 C.3       1 <0>         0.1128
     27 C27        -2.8325   -2.1090    1.5076 C.3       1 <0>         0.0786
     28 C28        -3.2671   -2.6599   -2.2288 C.3       1 <0>         0.0744
     29 C29        -4.0154   -1.5731    3.7302 C.3       1 <0>        -0.0678
     30 C30         0.4555    0.7445   -1.3388 C.3       1 <0>         0.1065
     31 N1         -0.4979   -2.7598    1.9615 N.am      1 <0>        -0.4315
     32 N2          1.2089    6.8461    0.6711 N.pl3     1 <0>        -0.8671
     33 N3         -0.8437    7.1205   -0.5399 N.pl3     1 <0>        -0.8581
     34 N4          0.4455    0.1980   -0.0008 N.am      1 <0>        -0.5687
     35 N5         -2.9650   -2.6361    0.1813 N.am      1 <0>        -0.5746
     36 N6         -0.0506    4.8893   -0.0421 N.pl3     1 <0>        -0.7533
     37 O1         -0.5362   -1.8555   -0.4928 O.2       1 <0>        -0.5843
     38 O2         -2.2659   -3.9924    2.8322 O.2       1 <0>        -0.6812
     39 O3         -3.1903   -0.6139   -0.9436 O.2       1 <0>        -0.5788
     40 O4         -9.6405   -2.4529   -2.3851 O.3       1 <0>        -0.4938
     41 O5          0.9879   -6.5072   -0.1510 O.3       1 <0>        -0.6030
     42 O6          2.8703    0.8436   -1.3793 O.3       1 <0>        -0.5860
     43 O7         -1.9649   -2.8845   -2.7495 O.3       1 <0>        -0.6021
     44 H1         -5.7471   -3.8124   -4.2659 H         1 <0>         0.1412
     45 H2         -5.6945   -0.3129   -1.7539 H         1 <0>         0.1451
     46 H3         -8.1715   -4.0526   -3.8778 H         1 <0>         0.1336
     47 H4         -8.1198   -0.5558   -1.3680 H         1 <0>         0.1567
     48 H5          3.5627   -2.8549    0.7003 H         1 <0>         0.0649
     49 H6          2.0259   -2.5829   -0.0837 H         1 <0>         0.0476
     50 H7          2.8567   -4.7427   -0.7790 H         1 <0>         0.0641
     51 H8          3.1032   -5.2618    0.8729 H         1 <0>         0.0484
     52 H9          2.1569   -0.7868    1.7257 H         1 <0>         0.0596
     53 H10         1.5124   -1.2395    3.3116 H         1 <0>         0.0757
     54 H11         1.0921   -5.7802    2.3299 H         1 <0>         0.0782
     55 H12        -0.5175   -5.5090    1.7393 H         1 <0>         0.0812
     56 H13        -0.5378   -0.6778    2.3126 H         1 <0>         0.0731
     57 H14         2.6304   -3.2407    2.8169 H         1 <0>         0.0511
     58 H15         0.4523   -3.8218    3.4319 H         1 <0>         0.0753
     59 H16         0.3841   -4.5700   -0.3844 H         1 <0>         0.0427
     60 H17        -3.2863    0.1550    4.8292 H         1 <0>         0.0450
     61 H18        -4.1066    0.5680    3.3260 H         1 <0>         0.0406
     62 H19        -2.4667   -0.1061    3.2804 H         1 <0>         0.0274
     63 H20        -2.1236   -2.5806    4.1412 H         1 <0>         0.0476
     64 H21        -3.0691   -2.1929    5.5894 H         1 <0>         0.0170
     65 H22        -3.5594   -3.5370    4.5502 H         1 <0>         0.0477
     66 H23        -3.8334   -0.8338   -3.2546 H         1 <0>         0.0814
     67 H24        -3.8723   -2.2483   -4.2864 H         1 <0>         0.0685
     68 H25        -1.9092    2.2808   -1.1025 H         1 <0>         0.1016
     69 H26        -1.0467    2.4234    0.4259 H         1 <0>         0.0660
     70 H27         1.1110    2.7323   -0.8028 H         1 <0>         0.0512
     71 H28         0.2685    2.6560   -2.3373 H         1 <0>         0.0454
     72 H29        -4.5642   -3.1100    2.3009 H         1 <0>         0.0575
     73 H30        -4.8775   -1.4748    1.7520 H         1 <0>         0.0743
     74 H31        -2.0997    4.5809   -0.1994 H         1 <0>         0.0662
     75 H32        -1.2190    4.5954   -1.7340 H         1 <0>         0.0622
     76 H33         1.7614    0.6251   -3.0928 H         1 <0>         0.0321
     77 H34         1.8289   -0.7905   -2.0281 H         1 <0>         0.0204
     78 H35        -2.3644   -1.1272    1.4485 H         1 <0>         0.0749
     79 H36        -3.7138   -3.6321   -1.9889 H         1 <0>         0.0719
     80 H37        -5.0090   -1.5561    4.1946 H         1 <0>         0.0609
     81 H38        -0.3978    0.3245   -1.8868 H         1 <0>         0.1063
     82 H39         1.9287    6.2742    1.1048 H         1 <0>         0.4792
     83 H40         1.3225    7.8557    0.7245 H         1 <0>         0.4819
     84 H41        -1.6601    6.7429   -1.0146 H         1 <0>         0.4802
     85 H42        -0.7481    8.1323   -0.4992 H         1 <0>         0.4826
     86 H43         0.8216    0.7626    0.7549 H         1 <0>         0.3101
     87 H44        -2.9331   -3.6495    0.0592 H         1 <0>         0.3087
     88 H45         0.6822    4.3187    0.3968 H         1 <0>         0.4846
     89 H46        -9.8911   -3.3904   -2.3935 H         1 <0>         0.4194
     90 H47         1.8515   -6.8926    0.0654 H         1 <0>         0.4036
     91 H48         2.9636    1.7601   -1.6856 H         1 <0>         0.4114
     92 H49        -2.0150   -2.7320   -3.7072 H         1 <0>         0.3944
@<TRIPOS>BOND
     1    1    3 ar
     2    1    5 ar
     3    2    4 ar
     4    2    5 ar
     5    3    6 ar
     6    4    6 ar
     7    5   21 1
     8    6   40 1
     9    7   15 1
    10    7   34 am
    11    7   37 2
    12    8   27 1
    13    8   31 am
    14    8   38 2
    15    9   28 1
    16    9   35 am
    17    9   39 2
    18   10   32 1
    19   10   33 1
    20   10   36 1
    21   11   12 1
    22   11   16 1
    23   12   18 1
    24   13   15 1
    25   13   16 1
    26   14   17 1
    27   14   18 1
    28   15   31 1
    29   16   17 1
    30   17   31 1
    31   18   41 1
    32   19   29 1
    33   20   29 1
    34   21   28 1
    35   22   23 1
    36   22   25 1
    37   23   30 1
    38   24   27 1
    39   24   29 1
    40   25   36 1
    41   26   30 1
    42   26   42 1
    43   27   35 1
    44   28   43 1
    45   30   34 1
    46    1   44 1
    47    2   45 1
    48    3   46 1
    49    4   47 1
    50   11   48 1
    51   11   49 1
    52   12   50 1
    53   12   51 1
    54   13   52 1
    55   13   53 1
    56   14   54 1
    57   14   55 1
    58   15   56 1
    59   16   57 1
    60   17   58 1
    61   18   59 1
    62   19   60 1
    63   19   61 1
    64   19   62 1
    65   20   63 1
    66   20   64 1
    67   20   65 1
    68   21   66 1
    69   21   67 1
    70   22   68 1
    71   22   69 1
    72   23   70 1
    73   23   71 1
    74   24   72 1
    75   24   73 1
    76   25   74 1
    77   25   75 1
    78   26   76 1
    79   26   77 1
    80   27   78 1
    81   28   79 1
    82   29   80 1
    83   30   81 1
    84   32   82 1
    85   32   83 1
    86   33   84 1
    87   33   85 1
    88   34   86 1
    89   35   87 1
    90   36   88 1
    91   40   89 1
    92   41   90 1
    93   42   91 1
    94   43   92 1
@<TRIPOS>MOLECULE
1a2c_ligand_272
   92    94     0     0     0
SMALL
USER_CHARGES

mmff94s_NoEstat = 126.04
@<TRIPOS>ATOM
      1 C1          7.8430   -0.2933    5.3545 C.ar      1 <0>        -0.0708
      2 C2          6.0978   -1.3476    6.6505 C.ar      1 <0>        -0.0872
      3 C3          7.6403    0.8982    6.0508 C.ar      1 <0>        -0.2241
      4 C4          5.8950   -0.1561    7.3468 C.ar      1 <0>        -0.1600
      5 C5          7.0691   -1.4002    5.6637 C.ar      1 <0>        -0.1356
      6 C6          6.6663    0.9668    7.0470 C.ar      1 <0>         0.1290
      7 C7          0.1755   -1.0766    0.1327 C.2       1 <0>         0.6664
      8 C8          2.3785   -0.9757    2.2764 C.2       1 <0>         0.6651
      9 C9          4.9366   -2.7533    4.0331 C.2       1 <0>         0.6454
     10 C10         0.0566    5.9382   -0.9679 C.cat     1 <0>         0.6349
     11 C11         2.4521   -5.3069   -0.2561 C.3       1 <0>        -0.0642
     12 C12         1.2413   -5.9691    0.3982 C.3       1 <0>        -0.0747
     13 C13         1.5734   -2.9393   -0.7647 C.3       1 <0>        -0.0873
     14 C14         1.0938   -4.1277    2.1072 C.3       1 <0>        -0.1371
     15 C15         1.5650   -1.6216    0.0133 C.3       1 <0>         0.0360
     16 C16         2.5597   -3.8106    0.0203 C.3       1 <0>        -0.0720
     17 C17         2.2934   -3.4012    1.4755 C.3       1 <0>         0.1201
     18 C18         1.1411   -5.6363    1.8853 C.3       1 <0>         0.1453
     19 C19         0.2658   -1.3152    5.2616 C.3       1 <0>        -0.0968
     20 C20         0.5109    0.5548    3.6177 C.3       1 <0>        -0.0986
     21 C21         7.2890   -2.6903    4.9103 C.3       1 <0>        -0.0191
     22 C22        -0.8392    2.2664   -0.8852 C.3       1 <0>        -0.1009
     23 C23        -1.6754    1.2905   -1.7214 C.3       1 <0>        -0.0942
     24 C24         2.5770   -0.3966    4.6867 C.3       1 <0>        -0.0988
     25 C25        -0.9003    3.6784   -1.4634 C.3       1 <0>         0.1966
     26 C26        -2.5783   -1.1036   -2.0263 C.3       1 <0>         0.1128
     27 C27         2.8496   -1.4560    3.6253 C.3       1 <0>         0.0786
     28 C28         6.4127   -2.7813    3.6567 C.3       1 <0>         0.0744
     29 C29         1.0824   -0.0766    4.8902 C.3       1 <0>        -0.0678
     30 C30        -1.7203   -0.1547   -1.1858 C.3       1 <0>         0.1065
     31 N1          2.0322   -1.9586    1.3590 N.am      1 <0>        -0.4315
     32 N2          0.8383    6.7654   -0.1682 N.pl3     1 <0>        -0.8671
     33 N3         -0.5783    6.4758   -2.0824 N.pl3     1 <0>        -0.8581
     34 N4         -0.3878   -0.7030   -1.0725 N.am      1 <0>        -0.5687
     35 N5          4.2458   -1.7091    3.4221 N.am      1 <0>        -0.5746
     36 N6         -0.0981    4.5744   -0.6649 N.pl3     1 <0>        -0.7533
     37 O1         -0.3509   -1.0007    1.2367 O.2       1 <0>        -0.5843
     38 O2          2.3230    0.2335    2.0409 O.2       1 <0>        -0.6812
     39 O3          4.4369   -3.5674    4.8063 O.2       1 <0>        -0.5788
     40 O4          6.4696    2.1290    7.7276 O.3       1 <0>        -0.4938
     41 O5          2.2611   -6.1715    2.5852 O.3       1 <0>        -0.6030
     42 O6         -2.5724   -2.4015   -1.4465 O.3       1 <0>        -0.5860
     43 O7          6.6796   -4.0096    2.9951 O.3       1 <0>        -0.6021
     44 H1          8.6040   -0.3371    4.5801 H         1 <0>         0.1412
     45 H2          5.4923   -2.2176    6.8910 H         1 <0>         0.1451
     46 H3          8.2443    1.7693    5.8128 H         1 <0>         0.1336
     47 H4          5.1353   -0.1092    8.1225 H         1 <0>         0.1567
     48 H5          3.3605   -5.7937    0.1218 H         1 <0>         0.0649
     49 H6          2.4319   -5.4897   -1.3370 H         1 <0>         0.0476
     50 H7          0.3241   -5.6545   -0.1129 H         1 <0>         0.0641
     51 H8          1.3294   -7.0545    0.2691 H         1 <0>         0.0484
     52 H9          0.5754   -3.3919   -0.8000 H         1 <0>         0.0596
     53 H10         1.8977   -2.7914   -1.8003 H         1 <0>         0.0757
     54 H11         1.0807   -3.9085    3.1823 H         1 <0>         0.0782
     55 H12         0.1523   -3.7376    1.7002 H         1 <0>         0.0812
     56 H13         2.2202   -0.8626   -0.4249 H         1 <0>         0.0731
     57 H14         3.5726   -3.4842   -0.2571 H         1 <0>         0.0511
     58 H15         3.1875   -3.5701    2.0864 H         1 <0>         0.0753
     59 H16         0.2435   -6.1003    2.3075 H         1 <0>         0.0427
     60 H17        -0.8003   -1.0721    5.3268 H         1 <0>         0.0450
     61 H18         0.5656   -1.7135    6.2354 H         1 <0>         0.0406
     62 H19         0.3859   -2.1083    4.5157 H         1 <0>         0.0274
     63 H20         0.5734   -0.1347    2.7689 H         1 <0>         0.0476
     64 H21        -0.5410    0.8267    3.7565 H         1 <0>         0.0170
     65 H22         1.0580    1.4667    3.3557 H         1 <0>         0.0477
     66 H23         7.0803   -3.5371    5.5778 H         1 <0>         0.0814
     67 H24         8.3541   -2.7647    4.6569 H         1 <0>         0.0685
     68 H25        -1.2041    2.2870    0.1483 H         1 <0>         0.1016
     69 H26         0.2054    1.9349   -0.8467 H         1 <0>         0.0660
     70 H27        -1.2820    1.2733   -2.7469 H         1 <0>         0.0512
     71 H28        -2.7004    1.6751   -1.7996 H         1 <0>         0.0454
     72 H29         3.1135    0.5249    4.4229 H         1 <0>         0.0575
     73 H30         2.9989   -0.7249    5.6470 H         1 <0>         0.0743
     74 H31        -1.9343    4.0389   -1.4775 H         1 <0>         0.0662
     75 H32        -0.5286    3.6880   -2.4933 H         1 <0>         0.0622
     76 H33        -2.2157   -1.1795   -3.0567 H         1 <0>         0.0321
     77 H34        -3.6169   -0.7550   -2.0576 H         1 <0>         0.0204
     78 H35         2.3493   -2.4014    3.8315 H         1 <0>         0.0749
     79 H36         6.6213   -1.9623    2.9582 H         1 <0>         0.0719
     80 H37         0.9798    0.6574    5.6989 H         1 <0>         0.0609
     81 H38        -2.1562   -0.1031   -0.1797 H         1 <0>         0.1063
     82 H39         1.3192    6.4171    0.6569 H         1 <0>         0.4792
     83 H40         0.9489    7.7525   -0.3884 H         1 <0>         0.4819
     84 H41        -1.1572    5.8995   -2.6884 H         1 <0>         0.4802
     85 H42        -0.4794    7.4595   -2.3213 H         1 <0>         0.4826
     86 H43         0.1607   -0.8193   -1.9192 H         1 <0>         0.3101
     87 H44         4.7623   -1.0902    2.7952 H         1 <0>         0.3087
     88 H45         0.3928    4.2301    0.1692 H         1 <0>         0.4846
     89 H46         6.6478    2.8900    7.1522 H         1 <0>         0.4194
     90 H47         2.7873   -5.4145    2.8873 H         1 <0>         0.4036
     91 H48        -1.7464   -2.8287   -1.7250 H         1 <0>         0.4114
     92 H49         7.5148   -4.3480    3.3569 H         1 <0>         0.3944
@<TRIPOS>BOND
     1    1    3 ar
     2    1    5 ar
     3    2    4 ar
     4    2    5 ar
     5    3    6 ar
     6    4    6 ar
     7    5   21 1
     8    6   40 1
     9    7   15 1
    10    7   34 am
    11    7   37 2
    12    8   27 1
    13    8   31 am
    14    8   38 2
    15    9   28 1
    16    9   35 am
    17    9   39 2
    18   10   32 1
    19   10   33 1
    20   10   36 1
    21   11   12 1
    22   11   16 1
    23   12   18 1
    24   13   15 1
    25   13   16 1
    26   14   17 1
    27   14   18 1
    28   15   31 1
    29   16   17 1
    30   17   31 1
    31   18   41 1
    32   19   29 1
    33   20   29 1
    34   21   28 1
    35   22   23 1
    36   22   25 1
    37   23   30 1
    38   24   27 1
    39   24   29 1
    40   25   36 1
    41   26   30 1
    42   26   42 1
    43   27   35 1
    44   28   43 1
    45   30   34 1
    46    1   44 1
    47    2   45 1
    48    3   46 1
    49    4   47 1
    50   11   48 1
    51   11   49 1
    52   12   50 1
    53   12   51 1
    54   13   52 1
    55   13   53 1
    56   14   54 1
    57   14   55 1
    58   15   56 1
    59   16   57 1
    60   17   58 1
    61   18   59 1
    62   19   60 1
    63   19   61 1
    64   19   62 1
    65   20   63 1
    66   20   64 1
    67   20   65 1
    68   21   66 1
    69   21   67 1
    70   22   68 1
    71   22   69 1
    72   23   70 1
    73   23   71 1
    74   24   72 1
    75   24   73 1
    76   25   74 1
    77   25   75 1
    78   26   76 1
    79   26   77 1
    80   27   78 1
    81   28   79 1
    82   29   80 1
    83   30   81 1
    84   32   82 1
    85   32   83 1
    86   33   84 1
    87   33   85 1
    88   34   86 1
    89   35   87 1
    90   36   88 1
    91   40   89 1
    92   41   90 1
    93   42   91 1
    94   43   92 1
@<TRIPOS>MOLECULE
1a2c_ligand_273
   92    94     0     0     0
SMALL
USER_CHARGES

mmff94s_NoEstat = 126.17
@<TRIPOS>ATOM
      1 C1         -4.5384   -3.3022   -5.2437 C.ar      1 <0>        -0.0708
      2 C2         -5.7449   -4.4829   -3.5153 C.ar      1 <0>        -0.0872
      3 C3         -4.8909   -4.2894   -6.1640 C.ar      1 <0>        -0.2241
      4 C4         -6.0973   -5.4700   -4.4355 C.ar      1 <0>        -0.1600
      5 C5         -4.9702   -3.4122   -3.9317 C.ar      1 <0>        -0.1356
      6 C6         -5.6703   -5.3733   -5.7599 C.ar      1 <0>         0.1290
      7 C7         -0.0512   -1.0561    0.2993 C.2       1 <0>         0.6664
      8 C8         -1.8469   -3.0457    2.1630 C.2       1 <0>         0.6651
      9 C9         -3.1350   -1.8416   -0.9503 C.2       1 <0>         0.6454
     10 C10        -1.8617    5.8535   -2.4401 C.cat     1 <0>         0.6349
     11 C11         2.5186   -3.1911    0.6823 C.3       1 <0>        -0.0642
     12 C12         2.4580   -4.6414    0.2376 C.3       1 <0>        -0.0747
     13 C13         1.4874   -1.4827    2.2418 C.3       1 <0>        -0.0873
     14 C14         0.4946   -5.0934    1.7133 C.3       1 <0>        -0.1371
     15 C15         0.0412   -1.4176    1.7503 C.3       1 <0>         0.0360
     16 C16         1.8865   -2.9529    2.0632 C.3       1 <0>        -0.0720
     17 C17         0.5665   -3.7001    2.3454 C.3       1 <0>         0.1201
     18 C18         1.0248   -5.1525    0.2868 C.3       1 <0>         0.1453
     19 C19        -3.4345   -0.1597    3.7904 C.3       1 <0>        -0.0968
     20 C20        -3.1391   -2.5257    4.5483 C.3       1 <0>        -0.0986
     21 C21        -4.5892   -2.3431   -2.9356 C.3       1 <0>        -0.0191
     22 C22         0.0133    3.1737   -0.5440 C.3       1 <0>        -0.1009
     23 C23        -0.4337    2.0012   -1.4250 C.3       1 <0>        -0.0942
     24 C24        -4.1436   -2.0954    2.2850 C.3       1 <0>        -0.0988
     25 C25        -0.9571    4.3475   -0.6564 C.3       1 <0>         0.1966
     26 C26         1.9058    0.9774   -1.7696 C.3       1 <0>         0.1128
     27 C27        -2.8325   -2.1090    1.5076 C.3       1 <0>         0.0786
     28 C28        -3.2671   -2.6599   -2.2288 C.3       1 <0>         0.0744
     29 C29        -4.0154   -1.5731    3.7302 C.3       1 <0>        -0.0678
     30 C30         0.4555    0.7445   -1.3388 C.3       1 <0>         0.1065
     31 N1         -0.4979   -2.7598    1.9615 N.am      1 <0>        -0.4315
     32 N2         -1.8979    6.2565   -3.7709 N.pl3     1 <0>        -0.8671
     33 N3         -2.6634    6.5083   -1.5114 N.pl3     1 <0>        -0.8581
     34 N4          0.4455    0.1980   -0.0008 N.am      1 <0>        -0.5687
     35 N5         -2.9650   -2.6361    0.1813 N.am      1 <0>        -0.5746
     36 N6         -1.0298    4.7989   -2.0257 N.pl3     1 <0>        -0.7533
     37 O1         -0.5362   -1.8555   -0.4928 O.2       1 <0>        -0.5843
     38 O2         -2.2659   -3.9924    2.8322 O.2       1 <0>        -0.6812
     39 O3         -3.1903   -0.6139   -0.9436 O.2       1 <0>        -0.5788
     40 O4         -6.0156   -6.3358   -6.6583 O.3       1 <0>        -0.4938
     41 O5          0.9879   -6.5072   -0.1510 O.3       1 <0>        -0.6030
     42 O6          2.6391   -0.2366   -1.6731 O.3       1 <0>        -0.5860
     43 O7         -2.1901   -2.3175   -3.0891 O.3       1 <0>        -0.6021
     44 H1         -3.9308   -2.4617   -5.5678 H         1 <0>         0.1412
     45 H2         -6.0823   -4.5663   -2.4854 H         1 <0>         0.1451
     46 H3         -4.5553   -4.2084   -7.1941 H         1 <0>         0.1336
     47 H4         -6.7056   -6.3117   -4.1148 H         1 <0>         0.1567
     48 H5          3.5627   -2.8549    0.7003 H         1 <0>         0.0649
     49 H6          2.0259   -2.5829   -0.0837 H         1 <0>         0.0476
     50 H7          2.8567   -4.7427   -0.7790 H         1 <0>         0.0641
     51 H8          3.1032   -5.2618    0.8729 H         1 <0>         0.0484
     52 H9          2.1569   -0.7868    1.7257 H         1 <0>         0.0596
     53 H10         1.5124   -1.2395    3.3116 H         1 <0>         0.0757
     54 H11         1.0921   -5.7802    2.3299 H         1 <0>         0.0782
     55 H12        -0.5175   -5.5090    1.7393 H         1 <0>         0.0812
     56 H13        -0.5378   -0.6778    2.3126 H         1 <0>         0.0731
     57 H14         2.6304   -3.2407    2.8169 H         1 <0>         0.0511
     58 H15         0.4523   -3.8218    3.4319 H         1 <0>         0.0753
     59 H16         0.3841   -4.5700   -0.3844 H         1 <0>         0.0427
     60 H17        -3.2863    0.1550    4.8292 H         1 <0>         0.0450
     61 H18        -4.1066    0.5680    3.3260 H         1 <0>         0.0406
     62 H19        -2.4667   -0.1061    3.2804 H         1 <0>         0.0274
     63 H20        -2.1236   -2.5806    4.1412 H         1 <0>         0.0476
     64 H21        -3.0691   -2.1929    5.5894 H         1 <0>         0.0170
     65 H22        -3.5594   -3.5370    4.5502 H         1 <0>         0.0477
     66 H23        -5.3947   -2.2358   -2.1969 H         1 <0>         0.0814
     67 H24        -4.5375   -1.3824   -3.4633 H         1 <0>         0.0685
     68 H25         0.0724    2.8576    0.5040 H         1 <0>         0.1016
     69 H26         1.0181    3.5045   -0.8331 H         1 <0>         0.0660
     70 H27        -0.4694    2.3356   -2.4708 H         1 <0>         0.0512
     71 H28        -1.4639    1.7294   -1.1616 H         1 <0>         0.0454
     72 H29        -4.5642   -3.1100    2.3009 H         1 <0>         0.0575
     73 H30        -4.8775   -1.4748    1.7520 H         1 <0>         0.0743
     74 H31        -0.6255    5.1767   -0.0225 H         1 <0>         0.0662
     75 H32        -1.9575    4.0517   -0.3242 H         1 <0>         0.0622
     76 H33         2.4001    1.7344   -1.1517 H         1 <0>         0.0321
     77 H34         1.9468    1.3120   -2.8125 H         1 <0>         0.0204
     78 H35        -2.3644   -1.1272    1.4485 H         1 <0>         0.0749
     79 H36        -3.1858   -3.7255   -1.9837 H         1 <0>         0.0719
     80 H37        -5.0090   -1.5561    4.1946 H         1 <0>         0.0609
     81 H38         0.0149    0.0012   -2.0158 H         1 <0>         0.1063
     82 H39        -1.3283    5.8087   -4.4839 H         1 <0>         0.4792
     83 H40        -2.5001    7.0203   -4.0693 H         1 <0>         0.4819
     84 H41        -2.6614    6.2393   -0.5305 H         1 <0>         0.4802
     85 H42        -3.2738    7.2731   -1.7892 H         1 <0>         0.4826
     86 H43         0.8216    0.7626    0.7549 H         1 <0>         0.3101
     87 H44        -2.9331   -3.6495    0.0592 H         1 <0>         0.3087
     88 H45        -0.4591    4.3505   -2.7526 H         1 <0>         0.4846
     89 H46        -5.3136   -6.4462   -7.3193 H         1 <0>         0.4194
     90 H47         1.8515   -6.8926    0.0654 H         1 <0>         0.4036
     91 H48         2.8853   -0.3414   -0.7399 H         1 <0>         0.4114
     92 H49        -2.5631   -2.2171   -3.9801 H         1 <0>         0.3944
@<TRIPOS>BOND
     1    1    3 ar
     2    1    5 ar
     3    2    4 ar
     4    2    5 ar
     5    3    6 ar
     6    4    6 ar
     7    5   21 1
     8    6   40 1
     9    7   15 1
    10    7   34 am
    11    7   37 2
    12    8   27 1
    13    8   31 am
    14    8   38 2
    15    9   28 1
    16    9   35 am
    17    9   39 2
    18   10   32 1
    19   10   33 1
    20   10   36 1
    21   11   12 1
    22   11   16 1
    23   12   18 1
    24   13   15 1
    25   13   16 1
    26   14   17 1
    27   14   18 1
    28   15   31 1
    29   16   17 1
    30   17   31 1
    31   18   41 1
    32   19   29 1
    33   20   29 1
    34   21   28 1
    35   22   23 1
    36   22   25 1
    37   23   30 1
    38   24   27 1
    39   24   29 1
    40   25   36 1
    41   26   30 1
    42   26   42 1
    43   27   35 1
    44   28   43 1
    45   30   34 1
    46    1   44 1
    47    2   45 1
    48    3   46 1
    49    4   47 1
    50   11   48 1
    51   11   49 1
    52   12   50 1
    53   12   51 1
    54   13   52 1
    55   13   53 1
    56   14   54 1
    57   14   55 1
    58   15   56 1
    59   16   57 1
    60   17   58 1
    61   18   59 1
    62   19   60 1
    63   19   61 1
    64   19   62 1
    65   20   63 1
    66   20   64 1
    67   20   65 1
    68   21   66 1
    69   21   67 1
    70   22   68 1
    71   22   69 1
    72   23   70 1
    73   23   71 1
    74   24   72 1
    75   24   73 1
    76   25   74 1
    77   25   75 1
    78   26   76 1
    79   26   77 1
    80   27   78 1
    81   28   79 1
    82   29   80 1
    83   30   81 1
    84   32   82 1
    85   32   83 1
    86   33   84 1
    87   33   85 1
    88   34   86 1
    89   35   87 1
    90   36   88 1
    91   40   89 1
    92   41   90 1
    93   42   91 1
    94   43   92 1
@<TRIPOS>MOLECULE
1a2c_ligand_274
   92    94     0     0     0
SMALL
USER_CHARGES

mmff94s_NoEstat = 126.18
@<TRIPOS>ATOM
      1 C1          8.9590   -2.4273    1.5330 C.ar      1 <0>        -0.0708
      2 C2          8.2026   -4.7203    1.6185 C.ar      1 <0>        -0.0872
      3 C3         10.2351   -2.8617    1.1746 C.ar      1 <0>        -0.2241
      4 C4          9.4788   -5.1546    1.2601 C.ar      1 <0>        -0.1600
      5 C5          7.9599   -3.3625    1.7501 C.ar      1 <0>        -0.1356
      6 C6         10.4951   -4.2253    1.0381 C.ar      1 <0>         0.1290
      7 C7          0.1755   -1.0766    0.1327 C.2       1 <0>         0.6664
      8 C8          2.3785   -0.9757    2.2764 C.2       1 <0>         0.6651
      9 C9          4.9366   -2.7533    4.0331 C.2       1 <0>         0.6454
     10 C10         0.0566    5.9382   -0.9679 C.cat     1 <0>         0.6349
     11 C11         2.4521   -5.3069   -0.2561 C.3       1 <0>        -0.0642
     12 C12         1.2413   -5.9691    0.3982 C.3       1 <0>        -0.0747
     13 C13         1.5734   -2.9393   -0.7647 C.3       1 <0>        -0.0873
     14 C14         1.0938   -4.1277    2.1072 C.3       1 <0>        -0.1371
     15 C15         1.5650   -1.6216    0.0133 C.3       1 <0>         0.0360
     16 C16         2.5597   -3.8106    0.0203 C.3       1 <0>        -0.0720
     17 C17         2.2934   -3.4012    1.4755 C.3       1 <0>         0.1201
     18 C18         1.1411   -5.6363    1.8853 C.3       1 <0>         0.1453
     19 C19         0.2658   -1.3152    5.2616 C.3       1 <0>        -0.0968
     20 C20         0.5109    0.5548    3.6177 C.3       1 <0>        -0.0986
     21 C21         6.5781   -2.8922    2.1374 C.3       1 <0>        -0.0191
     22 C22        -0.8392    2.2664   -0.8852 C.3       1 <0>        -0.1009
     23 C23        -1.6754    1.2905   -1.7214 C.3       1 <0>        -0.0942
     24 C24         2.5770   -0.3966    4.6867 C.3       1 <0>        -0.0988
     25 C25        -0.9003    3.6784   -1.4634 C.3       1 <0>         0.1966
     26 C26        -2.5783   -1.1036   -2.0263 C.3       1 <0>         0.1128
     27 C27         2.8496   -1.4560    3.6253 C.3       1 <0>         0.0786
     28 C28         6.4127   -2.7813    3.6567 C.3       1 <0>         0.0744
     29 C29         1.0824   -0.0766    4.8902 C.3       1 <0>        -0.0678
     30 C30        -1.7203   -0.1547   -1.1858 C.3       1 <0>         0.1065
     31 N1          2.0322   -1.9586    1.3590 N.am      1 <0>        -0.4315
     32 N2          0.8383    6.7654   -0.1682 N.pl3     1 <0>        -0.8671
     33 N3         -0.5783    6.4758   -2.0824 N.pl3     1 <0>        -0.8581
     34 N4         -0.3878   -0.7030   -1.0725 N.am      1 <0>        -0.5687
     35 N5          4.2458   -1.7091    3.4221 N.am      1 <0>        -0.5746
     36 N6         -0.0981    4.5744   -0.6649 N.pl3     1 <0>        -0.7533
     37 O1         -0.3509   -1.0007    1.2367 O.2       1 <0>        -0.5843
     38 O2          2.3230    0.2335    2.0409 O.2       1 <0>        -0.6812
     39 O3          4.4369   -3.5674    4.8063 O.2       1 <0>        -0.5788
     40 O4         11.7399   -4.6491    0.6868 O.3       1 <0>        -0.4938
     41 O5          2.2611   -6.1715    2.5852 O.3       1 <0>        -0.6030
     42 O6         -2.5724   -2.4015   -1.4465 O.3       1 <0>        -0.5860
     43 O7          7.0074   -1.5695    4.0986 O.3       1 <0>        -0.6021
     44 H1          8.7661   -1.3631    1.6371 H         1 <0>         0.1412
     45 H2          7.4168   -5.4516    1.7891 H         1 <0>         0.1451
     46 H3         11.0225   -2.1330    1.0030 H         1 <0>         0.1336
     47 H4          9.6748   -6.2184    1.1544 H         1 <0>         0.1567
     48 H5          3.3605   -5.7937    0.1218 H         1 <0>         0.0649
     49 H6          2.4319   -5.4897   -1.3370 H         1 <0>         0.0476
     50 H7          0.3241   -5.6545   -0.1129 H         1 <0>         0.0641
     51 H8          1.3294   -7.0545    0.2691 H         1 <0>         0.0484
     52 H9          0.5754   -3.3919   -0.8000 H         1 <0>         0.0596
     53 H10         1.8977   -2.7914   -1.8003 H         1 <0>         0.0757
     54 H11         1.0807   -3.9085    3.1823 H         1 <0>         0.0782
     55 H12         0.1523   -3.7376    1.7002 H         1 <0>         0.0812
     56 H13         2.2202   -0.8626   -0.4249 H         1 <0>         0.0731
     57 H14         3.5726   -3.4842   -0.2571 H         1 <0>         0.0511
     58 H15         3.1875   -3.5701    2.0864 H         1 <0>         0.0753
     59 H16         0.2435   -6.1003    2.3075 H         1 <0>         0.0427
     60 H17        -0.8003   -1.0721    5.3268 H         1 <0>         0.0450
     61 H18         0.5656   -1.7135    6.2354 H         1 <0>         0.0406
     62 H19         0.3859   -2.1083    4.5157 H         1 <0>         0.0274
     63 H20         0.5734   -0.1347    2.7689 H         1 <0>         0.0476
     64 H21        -0.5410    0.8267    3.7565 H         1 <0>         0.0170
     65 H22         1.0580    1.4667    3.3557 H         1 <0>         0.0477
     66 H23         5.8332   -3.5872    1.7274 H         1 <0>         0.0814
     67 H24         6.3910   -1.9291    1.6460 H         1 <0>         0.0685
     68 H25        -1.2041    2.2870    0.1483 H         1 <0>         0.1016
     69 H26         0.2054    1.9349   -0.8467 H         1 <0>         0.0660
     70 H27        -1.2820    1.2733   -2.7469 H         1 <0>         0.0512
     71 H28        -2.7004    1.6751   -1.7996 H         1 <0>         0.0454
     72 H29         3.1135    0.5249    4.4229 H         1 <0>         0.0575
     73 H30         2.9989   -0.7249    5.6470 H         1 <0>         0.0743
     74 H31        -1.9343    4.0389   -1.4775 H         1 <0>         0.0662
     75 H32        -0.5286    3.6880   -2.4933 H         1 <0>         0.0622
     76 H33        -2.2157   -1.1795   -3.0567 H         1 <0>         0.0321
     77 H34        -3.6169   -0.7550   -2.0576 H         1 <0>         0.0204
     78 H35         2.3493   -2.4014    3.8315 H         1 <0>         0.0749
     79 H36         6.9008   -3.6136    4.1775 H         1 <0>         0.0719
     80 H37         0.9798    0.6574    5.6989 H         1 <0>         0.0609
     81 H38        -2.1562   -0.1031   -0.1797 H         1 <0>         0.1063
     82 H39         1.3192    6.4171    0.6569 H         1 <0>         0.4792
     83 H40         0.9489    7.7525   -0.3884 H         1 <0>         0.4819
     84 H41        -1.1572    5.8995   -2.6884 H         1 <0>         0.4802
     85 H42        -0.4794    7.4595   -2.3213 H         1 <0>         0.4826
     86 H43         0.1607   -0.8193   -1.9192 H         1 <0>         0.3101
     87 H44         4.7623   -1.0902    2.7952 H         1 <0>         0.3087
     88 H45         0.3928    4.2301    0.1692 H         1 <0>         0.4846
     89 H46        12.4129   -4.0471    1.0425 H         1 <0>         0.4194
     90 H47         2.7873   -5.4145    2.8873 H         1 <0>         0.4036
     91 H48        -1.7464   -2.8287   -1.7250 H         1 <0>         0.4114
     92 H49         7.5790   -1.2578    3.3780 H         1 <0>         0.3944
@<TRIPOS>BOND
     1    1    3 ar
     2    1    5 ar
     3    2    4 ar
     4    2    5 ar
     5    3    6 ar
     6    4    6 ar
     7    5   21 1
     8    6   40 1
     9    7   15 1
    10    7   34 am
    11    7   37 2
    12    8   27 1
    13    8   31 am
    14    8   38 2
    15    9   28 1
    16    9   35 am
    17    9   39 2
    18   10   32 1
    19   10   33 1
    20   10   36 1
    21   11   12 1
    22   11   16 1
    23   12   18 1
    24   13   15 1
    25   13   16 1
    26   14   17 1
    27   14   18 1
    28   15   31 1
    29   16   17 1
    30   17   31 1
    31   18   41 1
    32   19   29 1
    33   20   29 1
    34   21   28 1
    35   22   23 1
    36   22   25 1
    37   23   30 1
    38   24   27 1
    39   24   29 1
    40   25   36 1
    41   26   30 1
    42   26   42 1
    43   27   35 1
    44   28   43 1
    45   30   34 1
    46    1   44 1
    47    2   45 1
    48    3   46 1
    49    4   47 1
    50   11   48 1
    51   11   49 1
    52   12   50 1
    53   12   51 1
    54   13   52 1
    55   13   53 1
    56   14   54 1
    57   14   55 1
    58   15   56 1
    59   16   57 1
    60   17   58 1
    61   18   59 1
    62   19   60 1
    63   19   61 1
    64   19   62 1
    65   20   63 1
    66   20   64 1
    67   20   65 1
    68   21   66 1
    69   21   67 1
    70   22   68 1
    71   22   69 1
    72   23   70 1
    73   23   71 1
    74   24   72 1
    75   24   73 1
    76   25   74 1
    77   25   75 1
    78   26   76 1
    79   26   77 1
    80   27   78 1
    81   28   79 1
    82   29   80 1
    83   30   81 1
    84   32   82 1
    85   32   83 1
    86   33   84 1
    87   33   85 1
    88   34   86 1
    89   35   87 1
    90   36   88 1
    91   40   89 1
    92   41   90 1
    93   42   91 1
    94   43   92 1
@<TRIPOS>MOLECULE
1a2c_ligand_275
   92    94     0     0     0
SMALL
USER_CHARGES

mmff94s_NoEstat = 126.21
@<TRIPOS>ATOM
      1 C1          9.3679   -4.2778    3.2747 C.ar      1 <0>        -0.0708
      2 C2          9.2039   -3.2019    5.4316 C.ar      1 <0>        -0.0872
      3 C3         10.7541   -4.1252    3.3040 C.ar      1 <0>        -0.2241
      4 C4         10.5900   -3.0492    5.4609 C.ar      1 <0>        -0.1600
      5 C5          8.6114   -3.8142    4.3389 C.ar      1 <0>        -0.1356
      6 C6         11.3652   -3.5109    4.3971 C.ar      1 <0>         0.1290
      7 C7          0.1755   -1.0766    0.1327 C.2       1 <0>         0.6664
      8 C8          2.3785   -0.9757    2.2764 C.2       1 <0>         0.6651
      9 C9          4.9366   -2.7533    4.0331 C.2       1 <0>         0.6454
     10 C10         0.0566    5.9382   -0.9679 C.cat     1 <0>         0.6349
     11 C11         2.4521   -5.3069   -0.2561 C.3       1 <0>        -0.0642
     12 C12         1.2413   -5.9691    0.3982 C.3       1 <0>        -0.0747
     13 C13         1.5734   -2.9393   -0.7647 C.3       1 <0>        -0.0873
     14 C14         1.0938   -4.1277    2.1072 C.3       1 <0>        -0.1371
     15 C15         1.5650   -1.6216    0.0133 C.3       1 <0>         0.0360
     16 C16         2.5597   -3.8106    0.0203 C.3       1 <0>        -0.0720
     17 C17         2.2934   -3.4012    1.4755 C.3       1 <0>         0.1201
     18 C18         1.1411   -5.6363    1.8853 C.3       1 <0>         0.1453
     19 C19         0.2658   -1.3152    5.2616 C.3       1 <0>        -0.0968
     20 C20         0.5109    0.5548    3.6177 C.3       1 <0>        -0.0986
     21 C21         7.1108   -3.9801    4.3074 C.3       1 <0>        -0.0191
     22 C22        -0.8392    2.2664   -0.8852 C.3       1 <0>        -0.1009
     23 C23        -1.6754    1.2905   -1.7214 C.3       1 <0>        -0.0942
     24 C24         2.5770   -0.3966    4.6867 C.3       1 <0>        -0.0988
     25 C25        -0.9003    3.6784   -1.4634 C.3       1 <0>         0.1966
     26 C26        -2.5783   -1.1036   -2.0263 C.3       1 <0>         0.1128
     27 C27         2.8496   -1.4560    3.6253 C.3       1 <0>         0.0786
     28 C28         6.4127   -2.7813    3.6567 C.3       1 <0>         0.0744
     29 C29         1.0824   -0.0766    4.8902 C.3       1 <0>        -0.0678
     30 C30        -1.7203   -0.1547   -1.1858 C.3       1 <0>         0.1065
     31 N1          2.0322   -1.9586    1.3590 N.am      1 <0>        -0.4315
     32 N2          0.8383    6.7654   -0.1682 N.pl3     1 <0>        -0.8671
     33 N3         -0.5783    6.4758   -2.0824 N.pl3     1 <0>        -0.8581
     34 N4         -0.3878   -0.7030   -1.0725 N.am      1 <0>        -0.5687
     35 N5          4.2458   -1.7091    3.4221 N.am      1 <0>        -0.5746
     36 N6         -0.0981    4.5744   -0.6649 N.pl3     1 <0>        -0.7533
     37 O1         -0.3509   -1.0007    1.2367 O.2       1 <0>        -0.5843
     38 O2          2.3230    0.2335    2.0409 O.2       1 <0>        -0.6812
     39 O3          4.4369   -3.5674    4.8063 O.2       1 <0>        -0.5788
     40 O4         12.7180   -3.3634    4.4265 O.3       1 <0>        -0.4938
     41 O5          2.2611   -6.1715    2.5852 O.3       1 <0>        -0.6030
     42 O6         -2.5724   -2.4015   -1.4465 O.3       1 <0>        -0.5860
     43 O7          6.5093   -2.9015    2.2447 O.3       1 <0>        -0.6021
     44 H1          8.9009   -4.7575    2.4188 H         1 <0>         0.1412
     45 H2          8.6078   -2.8393    6.2651 H         1 <0>         0.1451
     46 H3         11.3524   -4.4870    2.4725 H         1 <0>         0.1336
     47 H4         11.0604   -2.5706    6.3158 H         1 <0>         0.1567
     48 H5          3.3605   -5.7937    0.1218 H         1 <0>         0.0649
     49 H6          2.4319   -5.4897   -1.3370 H         1 <0>         0.0476
     50 H7          0.3241   -5.6545   -0.1129 H         1 <0>         0.0641
     51 H8          1.3294   -7.0545    0.2691 H         1 <0>         0.0484
     52 H9          0.5754   -3.3919   -0.8000 H         1 <0>         0.0596
     53 H10         1.8977   -2.7914   -1.8003 H         1 <0>         0.0757
     54 H11         1.0807   -3.9085    3.1823 H         1 <0>         0.0782
     55 H12         0.1523   -3.7376    1.7002 H         1 <0>         0.0812
     56 H13         2.2202   -0.8626   -0.4249 H         1 <0>         0.0731
     57 H14         3.5726   -3.4842   -0.2571 H         1 <0>         0.0511
     58 H15         3.1875   -3.5701    2.0864 H         1 <0>         0.0753
     59 H16         0.2435   -6.1003    2.3075 H         1 <0>         0.0427
     60 H17        -0.8003   -1.0721    5.3268 H         1 <0>         0.0450
     61 H18         0.5656   -1.7135    6.2354 H         1 <0>         0.0406
     62 H19         0.3859   -2.1083    4.5157 H         1 <0>         0.0274
     63 H20         0.5734   -0.1347    2.7689 H         1 <0>         0.0476
     64 H21        -0.5410    0.8267    3.7565 H         1 <0>         0.0170
     65 H22         1.0580    1.4667    3.3557 H         1 <0>         0.0477
     66 H23         6.7424   -4.1192    5.3327 H         1 <0>         0.0814
     67 H24         6.8777   -4.9118    3.7769 H         1 <0>         0.0685
     68 H25        -1.2041    2.2870    0.1483 H         1 <0>         0.1016
     69 H26         0.2054    1.9349   -0.8467 H         1 <0>         0.0660
     70 H27        -1.2820    1.2733   -2.7469 H         1 <0>         0.0512
     71 H28        -2.7004    1.6751   -1.7996 H         1 <0>         0.0454
     72 H29         3.1135    0.5249    4.4229 H         1 <0>         0.0575
     73 H30         2.9989   -0.7249    5.6470 H         1 <0>         0.0743
     74 H31        -1.9343    4.0389   -1.4775 H         1 <0>         0.0662
     75 H32        -0.5286    3.6880   -2.4933 H         1 <0>         0.0622
     76 H33        -2.2157   -1.1795   -3.0567 H         1 <0>         0.0321
     77 H34        -3.6169   -0.7550   -2.0576 H         1 <0>         0.0204
     78 H35         2.3493   -2.4014    3.8315 H         1 <0>         0.0749
     79 H36         6.8776   -1.8337    3.9535 H         1 <0>         0.0719
     80 H37         0.9798    0.6574    5.6989 H         1 <0>         0.0609
     81 H38        -2.1562   -0.1031   -0.1797 H         1 <0>         0.1063
     82 H39         1.3192    6.4171    0.6569 H         1 <0>         0.4792
     83 H40         0.9489    7.7525   -0.3884 H         1 <0>         0.4819
     84 H41        -1.1572    5.8995   -2.6884 H         1 <0>         0.4802
     85 H42        -0.4794    7.4595   -2.3213 H         1 <0>         0.4826
     86 H43         0.1607   -0.8193   -1.9192 H         1 <0>         0.3101
     87 H44         4.7623   -1.0902    2.7952 H         1 <0>         0.3087
     88 H45         0.3928    4.2301    0.1692 H         1 <0>         0.4846
     89 H46        13.0621   -3.2372    3.5278 H         1 <0>         0.4194
     90 H47         2.7873   -5.4145    2.8873 H         1 <0>         0.4036
     91 H48        -1.7464   -2.8287   -1.7250 H         1 <0>         0.4114
     92 H49         7.2005   -3.5597    2.0653 H         1 <0>         0.3944
@<TRIPOS>BOND
     1    1    3 ar
     2    1    5 ar
     3    2    4 ar
     4    2    5 ar
     5    3    6 ar
     6    4    6 ar
     7    5   21 1
     8    6   40 1
     9    7   15 1
    10    7   34 am
    11    7   37 2
    12    8   27 1
    13    8   31 am
    14    8   38 2
    15    9   28 1
    16    9   35 am
    17    9   39 2
    18   10   32 1
    19   10   33 1
    20   10   36 1
    21   11   12 1
    22   11   16 1
    23   12   18 1
    24   13   15 1
    25   13   16 1
    26   14   17 1
    27   14   18 1
    28   15   31 1
    29   16   17 1
    30   17   31 1
    31   18   41 1
    32   19   29 1
    33   20   29 1
    34   21   28 1
    35   22   23 1
    36   22   25 1
    37   23   30 1
    38   24   27 1
    39   24   29 1
    40   25   36 1
    41   26   30 1
    42   26   42 1
    43   27   35 1
    44   28   43 1
    45   30   34 1
    46    1   44 1
    47    2   45 1
    48    3   46 1
    49    4   47 1
    50   11   48 1
    51   11   49 1
    52   12   50 1
    53   12   51 1
    54   13   52 1
    55   13   53 1
    56   14   54 1
    57   14   55 1
    58   15   56 1
    59   16   57 1
    60   17   58 1
    61   18   59 1
    62   19   60 1
    63   19   61 1
    64   19   62 1
    65   20   63 1
    66   20   64 1
    67   20   65 1
    68   21   66 1
    69   21   67 1
    70   22   68 1
    71   22   69 1
    72   23   70 1
    73   23   71 1
    74   24   72 1
    75   24   73 1
    76   25   74 1
    77   25   75 1
    78   26   76 1
    79   26   77 1
    80   27   78 1
    81   28   79 1
    82   29   80 1
    83   30   81 1
    84   32   82 1
    85   32   83 1
    86   33   84 1
    87   33   85 1
    88   34   86 1
    89   35   87 1
    90   36   88 1
    91   40   89 1
    92   41   90 1
    93   42   91 1
    94   43   92 1
@<TRIPOS>MOLECULE
1a2c_ligand_276
   92    94     0     0     0
SMALL
USER_CHARGES

mmff94s_NoEstat = 126.26
@<TRIPOS>ATOM
      1 C1          9.7645   -1.6797    3.9896 C.ar      1 <0>        -0.0708
      2 C2          8.6013   -0.3524    2.3397 C.ar      1 <0>        -0.0872
      3 C3         10.9424   -1.5649    3.2514 C.ar      1 <0>        -0.2241
      4 C4          9.7792   -0.2376    1.6015 C.ar      1 <0>        -0.1600
      5 C5          8.6097   -1.0719    3.5238 C.ar      1 <0>        -0.1356
      6 C6         10.9498   -0.8438    2.0574 C.ar      1 <0>         0.1290
      7 C7          0.1755   -1.0766    0.1327 C.2       1 <0>         0.6664
      8 C8          2.3785   -0.9757    2.2764 C.2       1 <0>         0.6651
      9 C9          5.0726   -2.2851    4.3841 C.2       1 <0>         0.6454
     10 C10        -2.6284    5.4301   -1.9251 C.cat     1 <0>         0.6349
     11 C11         2.4521   -5.3069   -0.2561 C.3       1 <0>        -0.0642
     12 C12         1.2413   -5.9691    0.3982 C.3       1 <0>        -0.0747
     13 C13         1.5734   -2.9393   -0.7647 C.3       1 <0>        -0.0873
     14 C14         1.0938   -4.1277    2.1072 C.3       1 <0>        -0.1371
     15 C15         1.5650   -1.6216    0.0133 C.3       1 <0>         0.0360
     16 C16         2.5597   -3.8106    0.0203 C.3       1 <0>        -0.0720
     17 C17         2.2934   -3.4012    1.4755 C.3       1 <0>         0.1201
     18 C18         1.1411   -5.6363    1.8853 C.3       1 <0>         0.1453
     19 C19         0.2658   -1.3152    5.2616 C.3       1 <0>        -0.0968
     20 C20         0.5109    0.5548    3.6177 C.3       1 <0>        -0.0986
     21 C21         7.3346   -1.1957    4.3233 C.3       1 <0>        -0.0191
     22 C22        -0.8392    2.2664   -0.8852 C.3       1 <0>        -0.1009
     23 C23        -1.6754    1.2905   -1.7214 C.3       1 <0>        -0.0942
     24 C24         2.5770   -0.3966    4.6867 C.3       1 <0>        -0.0988
     25 C25        -0.9003    3.6784   -1.4634 C.3       1 <0>         0.1966
     26 C26        -2.5783   -1.1036   -2.0263 C.3       1 <0>         0.1128
     27 C27         2.8496   -1.4560    3.6253 C.3       1 <0>         0.0786
     28 C28         6.5149   -2.4235    3.9131 C.3       1 <0>         0.0744
     29 C29         1.0824   -0.0766    4.8902 C.3       1 <0>        -0.0678
     30 C30        -1.7203   -0.1547   -1.1858 C.3       1 <0>         0.1065
     31 N1          2.0322   -1.9586    1.3590 N.am      1 <0>        -0.4315
     32 N2         -3.9568    5.8427   -1.9149 N.pl3     1 <0>        -0.8671
     33 N3         -1.6515    6.3017   -2.3941 N.pl3     1 <0>        -0.8581
     34 N4         -0.3878   -0.7030   -1.0725 N.am      1 <0>        -0.5687
     35 N5          4.2458   -1.7091    3.4221 N.am      1 <0>        -0.5746
     36 N6         -2.2644    4.1511   -1.4699 N.pl3     1 <0>        -0.7533
     37 O1         -0.3509   -1.0007    1.2367 O.2       1 <0>        -0.5843
     38 O2          2.3230    0.2335    2.0409 O.2       1 <0>        -0.6812
     39 O3          4.7067   -2.6383    5.5030 O.2       1 <0>        -0.5788
     40 O4         12.0997   -0.7304    1.3379 O.3       1 <0>        -0.4938
     41 O5          2.2611   -6.1715    2.5852 O.3       1 <0>        -0.6030
     42 O6         -2.5724   -2.4015   -1.4465 O.3       1 <0>        -0.5860
     43 O7          7.0737   -3.5771    4.5249 O.3       1 <0>        -0.6021
     44 H1          9.7685   -2.2436    4.9184 H         1 <0>         0.1412
     45 H2          7.6939    0.1235    1.9769 H         1 <0>         0.1451
     46 H3         11.8510   -2.0392    3.6118 H         1 <0>         0.1336
     47 H4          9.7788    0.3263    0.6724 H         1 <0>         0.1567
     48 H5          3.3605   -5.7937    0.1218 H         1 <0>         0.0649
     49 H6          2.4319   -5.4897   -1.3370 H         1 <0>         0.0476
     50 H7          0.3241   -5.6545   -0.1129 H         1 <0>         0.0641
     51 H8          1.3294   -7.0545    0.2691 H         1 <0>         0.0484
     52 H9          0.5754   -3.3919   -0.8000 H         1 <0>         0.0596
     53 H10         1.8977   -2.7914   -1.8003 H         1 <0>         0.0757
     54 H11         1.0807   -3.9085    3.1823 H         1 <0>         0.0782
     55 H12         0.1523   -3.7376    1.7002 H         1 <0>         0.0812
     56 H13         2.2202   -0.8626   -0.4249 H         1 <0>         0.0731
     57 H14         3.5726   -3.4842   -0.2571 H         1 <0>         0.0511
     58 H15         3.1875   -3.5701    2.0864 H         1 <0>         0.0753
     59 H16         0.2435   -6.1003    2.3075 H         1 <0>         0.0427
     60 H17        -0.8003   -1.0721    5.3268 H         1 <0>         0.0450
     61 H18         0.5656   -1.7135    6.2354 H         1 <0>         0.0406
     62 H19         0.3859   -2.1083    4.5157 H         1 <0>         0.0274
     63 H20         0.5734   -0.1347    2.7689 H         1 <0>         0.0476
     64 H21        -0.5410    0.8267    3.7565 H         1 <0>         0.0170
     65 H22         1.0580    1.4667    3.3557 H         1 <0>         0.0477
     66 H23         6.7374   -0.2834    4.1921 H         1 <0>         0.0814
     67 H24         7.5970   -1.2307    5.3882 H         1 <0>         0.0685
     68 H25        -1.2041    2.2870    0.1483 H         1 <0>         0.1016
     69 H26         0.2054    1.9349   -0.8467 H         1 <0>         0.0660
     70 H27        -1.2820    1.2733   -2.7469 H         1 <0>         0.0512
     71 H28        -2.7004    1.6751   -1.7996 H         1 <0>         0.0454
     72 H29         3.1135    0.5249    4.4229 H         1 <0>         0.0575
     73 H30         2.9989   -0.7249    5.6470 H         1 <0>         0.0743
     74 H31        -0.5130    3.6867   -2.4878 H         1 <0>         0.0662
     75 H32        -0.2876    4.3637   -0.8686 H         1 <0>         0.0622
     76 H33        -2.2157   -1.1795   -3.0567 H         1 <0>         0.0321
     77 H34        -3.6169   -0.7550   -2.0576 H         1 <0>         0.0204
     78 H35         2.3493   -2.4014    3.8315 H         1 <0>         0.0749
     79 H36         6.5257   -2.5713    2.8267 H         1 <0>         0.0719
     80 H37         0.9798    0.6574    5.6989 H         1 <0>         0.0609
     81 H38        -2.1562   -0.1031   -0.1797 H         1 <0>         0.1063
     82 H39        -4.7045    5.2392   -1.5832 H         1 <0>         0.4792
     83 H40        -4.2189    6.7685   -2.2453 H         1 <0>         0.4819
     84 H41        -0.6709    6.0323   -2.4155 H         1 <0>         0.4802
     85 H42        -1.8920    7.2322   -2.7271 H         1 <0>         0.4826
     86 H43         0.1607   -0.8193   -1.9192 H         1 <0>         0.3101
     87 H44         4.6569   -1.4532    2.5231 H         1 <0>         0.3087
     88 H45        -3.0256    3.5484   -1.1344 H         1 <0>         0.4846
     89 H46        12.6407   -1.5296    1.4403 H         1 <0>         0.4194
     90 H47         2.7873   -5.4145    2.8873 H         1 <0>         0.4036
     91 H48        -1.7464   -2.8287   -1.7250 H         1 <0>         0.4114
     92 H49         7.9632   -3.3317    4.8278 H         1 <0>         0.3944
@<TRIPOS>BOND
     1    1    3 ar
     2    1    5 ar
     3    2    4 ar
     4    2    5 ar
     5    3    6 ar
     6    4    6 ar
     7    5   21 1
     8    6   40 1
     9    7   15 1
    10    7   34 am
    11    7   37 2
    12    8   27 1
    13    8   31 am
    14    8   38 2
    15    9   28 1
    16    9   35 am
    17    9   39 2
    18   10   32 1
    19   10   33 1
    20   10   36 1
    21   11   12 1
    22   11   16 1
    23   12   18 1
    24   13   15 1
    25   13   16 1
    26   14   17 1
    27   14   18 1
    28   15   31 1
    29   16   17 1
    30   17   31 1
    31   18   41 1
    32   19   29 1
    33   20   29 1
    34   21   28 1
    35   22   23 1
    36   22   25 1
    37   23   30 1
    38   24   27 1
    39   24   29 1
    40   25   36 1
    41   26   30 1
    42   26   42 1
    43   27   35 1
    44   28   43 1
    45   30   34 1
    46    1   44 1
    47    2   45 1
    48    3   46 1
    49    4   47 1
    50   11   48 1
    51   11   49 1
    52   12   50 1
    53   12   51 1
    54   13   52 1
    55   13   53 1
    56   14   54 1
    57   14   55 1
    58   15   56 1
    59   16   57 1
    60   17   58 1
    61   18   59 1
    62   19   60 1
    63   19   61 1
    64   19   62 1
    65   20   63 1
    66   20   64 1
    67   20   65 1
    68   21   66 1
    69   21   67 1
    70   22   68 1
    71   22   69 1
    72   23   70 1
    73   23   71 1
    74   24   72 1
    75   24   73 1
    76   25   74 1
    77   25   75 1
    78   26   76 1
    79   26   77 1
    80   27   78 1
    81   28   79 1
    82   29   80 1
    83   30   81 1
    84   32   82 1
    85   32   83 1
    86   33   84 1
    87   33   85 1
    88   34   86 1
    89   35   87 1
    90   36   88 1
    91   40   89 1
    92   41   90 1
    93   42   91 1
    94   43   92 1
@<TRIPOS>MOLECULE
1a2c_ligand_277
   92    94     0     0     0
SMALL
USER_CHARGES

mmff94s_NoEstat = 126.40
@<TRIPOS>ATOM
      1 C1         -9.0710   -3.1012    0.0189 C.ar      1 <0>        -0.0708
      2 C2         -7.9646   -4.4965    1.6517 C.ar      1 <0>        -0.0872
      3 C3        -10.1182   -4.0195   -0.0562 C.ar      1 <0>        -0.2241
      4 C4         -9.0118   -5.4148    1.5766 C.ar      1 <0>        -0.1600
      5 C5         -8.0083   -3.3520    0.8718 C.ar      1 <0>        -0.1356
      6 C6        -10.0887   -5.1764    0.7226 C.ar      1 <0>         0.1290
      7 C7         -0.0512   -1.0561    0.2993 C.2       1 <0>         0.6664
      8 C8         -1.8469   -3.0457    2.1630 C.2       1 <0>         0.6651
      9 C9         -4.4743   -1.9575    0.3333 C.2       1 <0>         0.6454
     10 C10        -0.9401   -0.8115   -4.1724 C.cat     1 <0>         0.6349
     11 C11         2.5186   -3.1911    0.6823 C.3       1 <0>        -0.0642
     12 C12         2.4580   -4.6414    0.2376 C.3       1 <0>        -0.0747
     13 C13         1.4874   -1.4827    2.2418 C.3       1 <0>        -0.0873
     14 C14         0.4946   -5.0934    1.7133 C.3       1 <0>        -0.1371
     15 C15         0.0412   -1.4176    1.7503 C.3       1 <0>         0.0360
     16 C16         1.8865   -2.9529    2.0632 C.3       1 <0>        -0.0720
     17 C17         0.5665   -3.7001    2.3454 C.3       1 <0>         0.1201
     18 C18         1.0248   -5.1525    0.2868 C.3       1 <0>         0.1453
     19 C19        -5.3726   -0.5418    3.1302 C.3       1 <0>        -0.0968
     20 C20        -3.4397    1.0389    2.9738 C.3       1 <0>        -0.0986
     21 C21        -6.8749   -2.3574    0.9537 C.3       1 <0>        -0.0191
     22 C22        -0.5396    2.6263   -2.8210 C.3       1 <0>        -0.1009
     23 C23        -0.4337    2.0012   -1.4250 C.3       1 <0>        -0.0942
     24 C24        -2.9973   -1.3585    3.5851 C.3       1 <0>        -0.0988
     25 C25        -1.1768    1.6547   -3.8119 C.3       1 <0>         0.1966
     26 C26         1.9058    0.9774   -1.7696 C.3       1 <0>         0.1128
     27 C27        -2.7865   -1.8644    2.1628 C.3       1 <0>         0.0786
     28 C28        -5.7663   -2.6636   -0.0588 C.3       1 <0>         0.0744
     29 C29        -3.9969   -0.1898    3.6979 C.3       1 <0>        -0.0678
     30 C30         0.4555    0.7445   -1.3388 C.3       1 <0>         0.1065
     31 N1         -0.4979   -2.7598    1.9615 N.am      1 <0>        -0.4315
     32 N2         -0.1374   -1.9446   -4.2528 N.pl3     1 <0>        -0.8671
     33 N3         -2.3119   -0.9376   -4.3627 N.pl3     1 <0>        -0.8581
     34 N4          0.4455    0.1980   -0.0008 N.am      1 <0>        -0.5687
     35 N5         -3.9799   -2.3853    1.5634 N.am      1 <0>        -0.5746
     36 N6         -0.3846    0.4512   -3.9026 N.pl3     1 <0>        -0.7533
     37 O1         -0.5362   -1.8555   -0.4928 O.2       1 <0>        -0.5843
     38 O2         -2.2998   -4.1783    2.3409 O.2       1 <0>        -0.6812
     39 O3         -3.9527   -1.0962   -0.3713 O.2       1 <0>        -0.5788
     40 O4        -11.1113   -6.0717    0.6505 O.3       1 <0>        -0.4938
     41 O5          0.9879   -6.5072   -0.1510 O.3       1 <0>        -0.6030
     42 O6          2.5087    1.9525   -0.9290 O.3       1 <0>        -0.5860
     43 O7         -6.1634   -2.1870   -1.3365 O.3       1 <0>        -0.6021
     44 H1         -9.1028   -2.2030   -0.5918 H         1 <0>         0.1412
     45 H2         -7.1297   -4.6904    2.3201 H         1 <0>         0.1451
     46 H3        -10.9542   -3.8281   -0.7231 H         1 <0>         0.1336
     47 H4         -8.9835   -6.3139    2.1866 H         1 <0>         0.1567
     48 H5          3.5627   -2.8549    0.7003 H         1 <0>         0.0649
     49 H6          2.0259   -2.5829   -0.0837 H         1 <0>         0.0476
     50 H7          2.8567   -4.7427   -0.7790 H         1 <0>         0.0641
     51 H8          3.1032   -5.2618    0.8729 H         1 <0>         0.0484
     52 H9          2.1569   -0.7868    1.7257 H         1 <0>         0.0596
     53 H10         1.5124   -1.2395    3.3116 H         1 <0>         0.0757
     54 H11         1.0921   -5.7802    2.3299 H         1 <0>         0.0782
     55 H12        -0.5175   -5.5090    1.7393 H         1 <0>         0.0812
     56 H13        -0.5378   -0.6778    2.3126 H         1 <0>         0.0731
     57 H14         2.6304   -3.2407    2.8169 H         1 <0>         0.0511
     58 H15         0.4523   -3.8218    3.4319 H         1 <0>         0.0753
     59 H16         0.3841   -4.5700   -0.3844 H         1 <0>         0.0427
     60 H17        -6.0375    0.3284    3.1563 H         1 <0>         0.0450
     61 H18        -5.8542   -1.3328    3.7128 H         1 <0>         0.0406
     62 H19        -5.2988   -0.8789    2.0908 H         1 <0>         0.0274
     63 H20        -3.3028    0.8425    1.9049 H         1 <0>         0.0476
     64 H21        -4.1178    1.8926    3.0773 H         1 <0>         0.0170
     65 H22        -2.4708    1.3315    3.3922 H         1 <0>         0.0477
     66 H23        -6.4655   -2.3612    1.9727 H         1 <0>         0.0814
     67 H24        -7.2864   -1.3519    0.8004 H         1 <0>         0.0685
     68 H25        -1.1414    3.5417   -2.7803 H         1 <0>         0.1016
     69 H26         0.4540    2.9154   -3.1840 H         1 <0>         0.0660
     70 H27        -1.4419    1.7433   -1.0734 H         1 <0>         0.0512
     71 H28        -0.0553    2.7561   -0.7237 H         1 <0>         0.0454
     72 H29        -2.0302   -1.0518    4.0061 H         1 <0>         0.0575
     73 H30        -3.3514   -2.1846    4.2177 H         1 <0>         0.0743
     74 H31        -1.2459    2.1142   -4.8035 H         1 <0>         0.0662
     75 H32        -2.1908    1.3917   -3.4936 H         1 <0>         0.0622
     76 H33         1.9749    1.3199   -2.8074 H         1 <0>         0.0321
     77 H34         2.4858    0.0519   -1.6791 H         1 <0>         0.0204
     78 H35        -2.3647   -1.1082    1.5019 H         1 <0>         0.0749
     79 H36        -5.5777   -3.7409   -0.1372 H         1 <0>         0.0719
     80 H37        -4.1195    0.0762    4.7551 H         1 <0>         0.0609
     81 H38         0.0149    0.0012   -2.0158 H         1 <0>         0.1063
     82 H39         0.8698   -1.9002   -4.1228 H         1 <0>         0.4792
     83 H40        -0.5408   -2.8578   -4.4487 H         1 <0>         0.4819
     84 H41        -2.9279   -0.1298   -4.3108 H         1 <0>         0.4802
     85 H42        -2.7355   -1.8415   -4.5578 H         1 <0>         0.4826
     86 H43         0.8216    0.7626    0.7549 H         1 <0>         0.3101
     87 H44        -4.4957   -3.1095    2.0656 H         1 <0>         0.3087
     88 H45         0.6334    0.4871   -3.7704 H         1 <0>         0.4846
     89 H46       -11.4852   -6.0838   -0.2450 H         1 <0>         0.4194
     90 H47         1.8515   -6.8926    0.0654 H         1 <0>         0.4036
     91 H48         2.2238    2.8203   -1.2580 H         1 <0>         0.4114
     92 H49        -7.1203   -2.0275   -1.2920 H         1 <0>         0.3944
@<TRIPOS>BOND
     1    1    3 ar
     2    1    5 ar
     3    2    4 ar
     4    2    5 ar
     5    3    6 ar
     6    4    6 ar
     7    5   21 1
     8    6   40 1
     9    7   15 1
    10    7   34 am
    11    7   37 2
    12    8   27 1
    13    8   31 am
    14    8   38 2
    15    9   28 1
    16    9   35 am
    17    9   39 2
    18   10   32 1
    19   10   33 1
    20   10   36 1
    21   11   12 1
    22   11   16 1
    23   12   18 1
    24   13   15 1
    25   13   16 1
    26   14   17 1
    27   14   18 1
    28   15   31 1
    29   16   17 1
    30   17   31 1
    31   18   41 1
    32   19   29 1
    33   20   29 1
    34   21   28 1
    35   22   23 1
    36   22   25 1
    37   23   30 1
    38   24   27 1
    39   24   29 1
    40   25   36 1
    41   26   30 1
    42   26   42 1
    43   27   35 1
    44   28   43 1
    45   30   34 1
    46    1   44 1
    47    2   45 1
    48    3   46 1
    49    4   47 1
    50   11   48 1
    51   11   49 1
    52   12   50 1
    53   12   51 1
    54   13   52 1
    55   13   53 1
    56   14   54 1
    57   14   55 1
    58   15   56 1
    59   16   57 1
    60   17   58 1
    61   18   59 1
    62   19   60 1
    63   19   61 1
    64   19   62 1
    65   20   63 1
    66   20   64 1
    67   20   65 1
    68   21   66 1
    69   21   67 1
    70   22   68 1
    71   22   69 1
    72   23   70 1
    73   23   71 1
    74   24   72 1
    75   24   73 1
    76   25   74 1
    77   25   75 1
    78   26   76 1
    79   26   77 1
    80   27   78 1
    81   28   79 1
    82   29   80 1
    83   30   81 1
    84   32   82 1
    85   32   83 1
    86   33   84 1
    87   33   85 1
    88   34   86 1
    89   35   87 1
    90   36   88 1
    91   40   89 1
    92   41   90 1
    93   42   91 1
    94   43   92 1
@<TRIPOS>MOLECULE
1a2c_ligand_278
   92    94     0     0     0
SMALL
USER_CHARGES

mmff94s_NoEstat = 126.42
@<TRIPOS>ATOM
      1 C1          8.1670    0.0529    3.5645 C.ar      1 <0>        -0.0708
      2 C2          6.2214    0.2732    4.9798 C.ar      1 <0>        -0.0872
      3 C3          8.1370    1.4239    3.3098 C.ar      1 <0>        -0.2241
      4 C4          6.1914    1.6443    4.7251 C.ar      1 <0>        -0.1600
      5 C5          7.2088   -0.5041    4.3961 C.ar      1 <0>        -0.1356
      6 C6          7.1492    2.2197    3.8901 C.ar      1 <0>         0.1290
      7 C7          0.1755   -1.0766    0.1327 C.2       1 <0>         0.6664
      8 C8          2.3785   -0.9757    2.2764 C.2       1 <0>         0.6651
      9 C9          4.9366   -2.7533    4.0331 C.2       1 <0>         0.6454
     10 C10        -2.7481    5.0780   -2.4093 C.cat     1 <0>         0.6349
     11 C11         2.4521   -5.3069   -0.2561 C.3       1 <0>        -0.0642
     12 C12         1.2413   -5.9691    0.3982 C.3       1 <0>        -0.0747
     13 C13         1.5734   -2.9393   -0.7647 C.3       1 <0>        -0.0873
     14 C14         1.0938   -4.1277    2.1072 C.3       1 <0>        -0.1371
     15 C15         1.5650   -1.6216    0.0133 C.3       1 <0>         0.0360
     16 C16         2.5597   -3.8106    0.0203 C.3       1 <0>        -0.0720
     17 C17         2.2934   -3.4012    1.4755 C.3       1 <0>         0.1201
     18 C18         1.1411   -5.6363    1.8853 C.3       1 <0>         0.1453
     19 C19         0.2658   -1.3152    5.2616 C.3       1 <0>        -0.0968
     20 C20         0.5109    0.5548    3.6177 C.3       1 <0>        -0.0986
     21 C21         7.2417   -1.9883    4.6724 C.3       1 <0>        -0.0191
     22 C22        -0.8392    2.2664   -0.8852 C.3       1 <0>        -0.1009
     23 C23        -1.6754    1.2905   -1.7214 C.3       1 <0>        -0.0942
     24 C24         2.5770   -0.3966    4.6867 C.3       1 <0>        -0.0988
     25 C25        -0.9003    3.6784   -1.4634 C.3       1 <0>         0.1966
     26 C26        -2.5783   -1.1036   -2.0263 C.3       1 <0>         0.1128
     27 C27         2.8496   -1.4560    3.6253 C.3       1 <0>         0.0786
     28 C28         6.4127   -2.7813    3.6567 C.3       1 <0>         0.0744
     29 C29         1.0824   -0.0766    4.8902 C.3       1 <0>        -0.0678
     30 C30        -1.7203   -0.1547   -1.1858 C.3       1 <0>         0.1065
     31 N1          2.0322   -1.9586    1.3590 N.am      1 <0>        -0.4315
     32 N2         -4.0719    5.5040   -2.3787 N.pl3     1 <0>        -0.8671
     33 N3         -1.8964    5.5812   -3.3867 N.pl3     1 <0>        -0.8581
     34 N4         -0.3878   -0.7030   -1.0725 N.am      1 <0>        -0.5687
     35 N5          4.2458   -1.7091    3.4221 N.am      1 <0>        -0.5746
     36 N6         -2.2644    4.1511   -1.4699 N.pl3     1 <0>        -0.7533
     37 O1         -0.3509   -1.0007    1.2367 O.2       1 <0>        -0.5843
     38 O2          2.3230    0.2335    2.0409 O.2       1 <0>        -0.6812
     39 O3          4.4369   -3.5674    4.8063 O.2       1 <0>        -0.5788
     40 O4          7.1209    3.5579    3.6428 O.3       1 <0>        -0.4938
     41 O5          2.2611   -6.1715    2.5852 O.3       1 <0>        -0.6030
     42 O6         -2.5724   -2.4015   -1.4465 O.3       1 <0>        -0.5860
     43 O7          6.8471   -4.1336    3.6615 O.3       1 <0>        -0.6021
     44 H1          8.9402   -0.5589    3.1078 H         1 <0>         0.1412
     45 H2          5.4711   -0.1664    5.6319 H         1 <0>         0.1451
     46 H3          8.8859    1.8662    2.6587 H         1 <0>         0.1336
     47 H4          5.4198    2.2592    5.1809 H         1 <0>         0.1567
     48 H5          3.3605   -5.7937    0.1218 H         1 <0>         0.0649
     49 H6          2.4319   -5.4897   -1.3370 H         1 <0>         0.0476
     50 H7          0.3241   -5.6545   -0.1129 H         1 <0>         0.0641
     51 H8          1.3294   -7.0545    0.2691 H         1 <0>         0.0484
     52 H9          0.5754   -3.3919   -0.8000 H         1 <0>         0.0596
     53 H10         1.8977   -2.7914   -1.8003 H         1 <0>         0.0757
     54 H11         1.0807   -3.9085    3.1823 H         1 <0>         0.0782
     55 H12         0.1523   -3.7376    1.7002 H         1 <0>         0.0812
     56 H13         2.2202   -0.8626   -0.4249 H         1 <0>         0.0731
     57 H14         3.5726   -3.4842   -0.2571 H         1 <0>         0.0511
     58 H15         3.1875   -3.5701    2.0864 H         1 <0>         0.0753
     59 H16         0.2435   -6.1003    2.3075 H         1 <0>         0.0427
     60 H17        -0.8003   -1.0721    5.3268 H         1 <0>         0.0450
     61 H18         0.5656   -1.7135    6.2354 H         1 <0>         0.0406
     62 H19         0.3859   -2.1083    4.5157 H         1 <0>         0.0274
     63 H20         0.5734   -0.1347    2.7689 H         1 <0>         0.0476
     64 H21        -0.5410    0.8267    3.7565 H         1 <0>         0.0170
     65 H22         1.0580    1.4667    3.3557 H         1 <0>         0.0477
     66 H23         6.8694   -2.1736    5.6888 H         1 <0>         0.0814
     67 H24         8.2889   -2.3161    4.6731 H         1 <0>         0.0685
     68 H25        -1.2041    2.2870    0.1483 H         1 <0>         0.1016
     69 H26         0.2054    1.9349   -0.8467 H         1 <0>         0.0660
     70 H27        -1.2820    1.2733   -2.7469 H         1 <0>         0.0512
     71 H28        -2.7004    1.6751   -1.7996 H         1 <0>         0.0454
     72 H29         3.1135    0.5249    4.4229 H         1 <0>         0.0575
     73 H30         2.9989   -0.7249    5.6470 H         1 <0>         0.0743
     74 H31        -0.5130    3.6867   -2.4878 H         1 <0>         0.0662
     75 H32        -0.2876    4.3637   -0.8686 H         1 <0>         0.0622
     76 H33        -2.2157   -1.1795   -3.0567 H         1 <0>         0.0321
     77 H34        -3.6169   -0.7550   -2.0576 H         1 <0>         0.0204
     78 H35         2.3493   -2.4014    3.8315 H         1 <0>         0.0749
     79 H36         6.5324   -2.3855    2.6412 H         1 <0>         0.0719
     80 H37         0.9798    0.6574    5.6989 H         1 <0>         0.0609
     81 H38        -2.1562   -0.1031   -0.1797 H         1 <0>         0.1063
     82 H39        -4.7307    5.1621   -1.6842 H         1 <0>         0.4792
     83 H40        -4.4208    6.1746   -3.0597 H         1 <0>         0.4819
     84 H41        -0.9229    5.2911   -3.4379 H         1 <0>         0.4802
     85 H42        -2.2246    6.2537   -4.0757 H         1 <0>         0.4826
     86 H43         0.1607   -0.8193   -1.9192 H         1 <0>         0.3101
     87 H44         4.7623   -1.0902    2.7952 H         1 <0>         0.3087
     88 H45        -2.9359    3.8121   -0.7703 H         1 <0>         0.4846
     89 H46         7.4453    3.7412    2.7467 H         1 <0>         0.4194
     90 H47         2.7873   -5.4145    2.8873 H         1 <0>         0.4036
     91 H48        -1.7464   -2.8287   -1.7250 H         1 <0>         0.4114
     92 H49         7.7099   -4.1501    4.1071 H         1 <0>         0.3944
@<TRIPOS>BOND
     1    1    3 ar
     2    1    5 ar
     3    2    4 ar
     4    2    5 ar
     5    3    6 ar
     6    4    6 ar
     7    5   21 1
     8    6   40 1
     9    7   15 1
    10    7   34 am
    11    7   37 2
    12    8   27 1
    13    8   31 am
    14    8   38 2
    15    9   28 1
    16    9   35 am
    17    9   39 2
    18   10   32 1
    19   10   33 1
    20   10   36 1
    21   11   12 1
    22   11   16 1
    23   12   18 1
    24   13   15 1
    25   13   16 1
    26   14   17 1
    27   14   18 1
    28   15   31 1
    29   16   17 1
    30   17   31 1
    31   18   41 1
    32   19   29 1
    33   20   29 1
    34   21   28 1
    35   22   23 1
    36   22   25 1
    37   23   30 1
    38   24   27 1
    39   24   29 1
    40   25   36 1
    41   26   30 1
    42   26   42 1
    43   27   35 1
    44   28   43 1
    45   30   34 1
    46    1   44 1
    47    2   45 1
    48    3   46 1
    49    4   47 1
    50   11   48 1
    51   11   49 1
    52   12   50 1
    53   12   51 1
    54   13   52 1
    55   13   53 1
    56   14   54 1
    57   14   55 1
    58   15   56 1
    59   16   57 1
    60   17   58 1
    61   18   59 1
    62   19   60 1
    63   19   61 1
    64   19   62 1
    65   20   63 1
    66   20   64 1
    67   20   65 1
    68   21   66 1
    69   21   67 1
    70   22   68 1
    71   22   69 1
    72   23   70 1
    73   23   71 1
    74   24   72 1
    75   24   73 1
    76   25   74 1
    77   25   75 1
    78   26   76 1
    79   26   77 1
    80   27   78 1
    81   28   79 1
    82   29   80 1
    83   30   81 1
    84   32   82 1
    85   32   83 1
    86   33   84 1
    87   33   85 1
    88   34   86 1
    89   35   87 1
    90   36   88 1
    91   40   89 1
    92   41   90 1
    93   42   91 1
    94   43   92 1
@<TRIPOS>MOLECULE
1a2c_ligand_279
   92    94     0     0     0
SMALL
USER_CHARGES

mmff94s_NoEstat = 126.46
@<TRIPOS>ATOM
      1 C1         -6.2155   -2.4922   -0.6805 C.ar      1 <0>        -0.0708
      2 C2         -6.4716   -2.2950   -3.0747 C.ar      1 <0>        -0.0872
      3 C3         -7.3840   -1.7535   -0.4947 C.ar      1 <0>        -0.2241
      4 C4         -7.6401   -1.5563   -2.8889 C.ar      1 <0>        -0.1600
      5 C5         -5.7750   -2.7531   -1.9680 C.ar      1 <0>        -0.1356
      6 C6         -8.0964   -1.2855   -1.5989 C.ar      1 <0>         0.1290
      7 C7         -0.0512   -1.0561    0.2993 C.2       1 <0>         0.6664
      8 C8         -1.8469   -3.0457    2.1630 C.2       1 <0>         0.6651
      9 C9         -3.1350   -1.8416   -0.9503 C.2       1 <0>         0.6454
     10 C10        -1.3680    6.0369   -2.4463 C.cat     1 <0>         0.6349
     11 C11         2.5186   -3.1911    0.6823 C.3       1 <0>        -0.0642
     12 C12         2.4580   -4.6414    0.2376 C.3       1 <0>        -0.0747
     13 C13         1.4874   -1.4827    2.2418 C.3       1 <0>        -0.0873
     14 C14         0.4946   -5.0934    1.7133 C.3       1 <0>        -0.1371
     15 C15         0.0412   -1.4176    1.7503 C.3       1 <0>         0.0360
     16 C16         1.8865   -2.9529    2.0632 C.3       1 <0>        -0.0720
     17 C17         0.5665   -3.7001    2.3454 C.3       1 <0>         0.1201
     18 C18         1.0248   -5.1525    0.2868 C.3       1 <0>         0.1453
     19 C19        -3.4345   -0.1597    3.7904 C.3       1 <0>        -0.0968
     20 C20        -3.1391   -2.5257    4.5483 C.3       1 <0>        -0.0986
     21 C21        -4.5104   -3.5534   -2.1691 C.3       1 <0>        -0.0191
     22 C22        -1.0374    2.7415   -0.6235 C.3       1 <0>        -0.1009
     23 C23         0.2513    2.2726   -1.3090 C.3       1 <0>        -0.0942
     24 C24        -4.1436   -2.0954    2.2850 C.3       1 <0>        -0.0988
     25 C25        -1.1758    4.2607   -0.6924 C.3       1 <0>         0.1966
     26 C26         1.7383    0.3016   -2.0469 C.3       1 <0>         0.1128
     27 C27        -2.8325   -2.1090    1.5076 C.3       1 <0>         0.0786
     28 C28        -3.2671   -2.6599   -2.2288 C.3       1 <0>         0.0744
     29 C29        -4.0154   -1.5731    3.7302 C.3       1 <0>        -0.0678
     30 C30         0.4555    0.7445   -1.3388 C.3       1 <0>         0.1065
     31 N1         -0.4979   -2.7598    1.9615 N.am      1 <0>        -0.4315
     32 N2         -1.4040    6.4058   -3.7870 N.pl3     1 <0>        -0.8671
     33 N3         -1.4802    7.0203   -1.4694 N.pl3     1 <0>        -0.8581
     34 N4          0.4455    0.1980   -0.0008 N.am      1 <0>        -0.5687
     35 N5         -2.9650   -2.6361    0.1813 N.am      1 <0>        -0.5746
     36 N6         -1.2206    4.6907   -2.0698 N.pl3     1 <0>        -0.7533
     37 O1         -0.5362   -1.8555   -0.4928 O.2       1 <0>        -0.5843
     38 O2         -2.2659   -3.9924    2.8322 O.2       1 <0>        -0.6812
     39 O3         -3.1903   -0.6139   -0.9436 O.2       1 <0>        -0.5788
     40 O4         -9.2375   -0.5660   -1.4176 O.3       1 <0>        -0.4938
     41 O5          0.9879   -6.5072   -0.1510 O.3       1 <0>        -0.6030
     42 O6          2.8703    0.8436   -1.3793 O.3       1 <0>        -0.5860
     43 O7         -3.3968   -1.7608   -3.3207 O.3       1 <0>        -0.6021
     44 H1         -5.6674   -2.8524    0.1858 H         1 <0>         0.1412
     45 H2         -6.1238   -2.5015   -4.0836 H         1 <0>         0.1451
     46 H3         -7.7343   -1.5460    0.5126 H         1 <0>         0.1336
     47 H4         -8.1912   -1.1952   -3.7533 H         1 <0>         0.1567
     48 H5          3.5627   -2.8549    0.7003 H         1 <0>         0.0649
     49 H6          2.0259   -2.5829   -0.0837 H         1 <0>         0.0476
     50 H7          2.8567   -4.7427   -0.7790 H         1 <0>         0.0641
     51 H8          3.1032   -5.2618    0.8729 H         1 <0>         0.0484
     52 H9          2.1569   -0.7868    1.7257 H         1 <0>         0.0596
     53 H10         1.5124   -1.2395    3.3116 H         1 <0>         0.0757
     54 H11         1.0921   -5.7802    2.3299 H         1 <0>         0.0782
     55 H12        -0.5175   -5.5090    1.7393 H         1 <0>         0.0812
     56 H13        -0.5378   -0.6778    2.3126 H         1 <0>         0.0731
     57 H14         2.6304   -3.2407    2.8169 H         1 <0>         0.0511
     58 H15         0.4523   -3.8218    3.4319 H         1 <0>         0.0753
     59 H16         0.3841   -4.5700   -0.3844 H         1 <0>         0.0427
     60 H17        -3.2863    0.1550    4.8292 H         1 <0>         0.0450
     61 H18        -4.1066    0.5680    3.3260 H         1 <0>         0.0406
     62 H19        -2.4667   -0.1061    3.2804 H         1 <0>         0.0274
     63 H20        -2.1236   -2.5806    4.1412 H         1 <0>         0.0476
     64 H21        -3.0691   -2.1929    5.5894 H         1 <0>         0.0170
     65 H22        -3.5594   -3.5370    4.5502 H         1 <0>         0.0477
     66 H23        -4.5980   -4.1387   -3.0942 H         1 <0>         0.0814
     67 H24        -4.4337   -4.2874   -1.3571 H         1 <0>         0.0685
     68 H25        -1.9092    2.2808   -1.1025 H         1 <0>         0.1016
     69 H26        -1.0467    2.4234    0.4259 H         1 <0>         0.0660
     70 H27         1.1110    2.7323   -0.8028 H         1 <0>         0.0512
     71 H28         0.2685    2.6560   -2.3373 H         1 <0>         0.0454
     72 H29        -4.5642   -3.1100    2.3009 H         1 <0>         0.0575
     73 H30        -4.8775   -1.4748    1.7520 H         1 <0>         0.0743
     74 H31        -0.3281    4.7425   -0.1937 H         1 <0>         0.0662
     75 H32        -2.0906    4.5862   -0.1866 H         1 <0>         0.0622
     76 H33         1.7614    0.6251   -3.0928 H         1 <0>         0.0321
     77 H34         1.8289   -0.7905   -2.0281 H         1 <0>         0.0204
     78 H35        -2.3644   -1.1272    1.4485 H         1 <0>         0.0749
     79 H36        -2.3537   -3.2485   -2.3749 H         1 <0>         0.0719
     80 H37        -5.0090   -1.5561    4.1946 H         1 <0>         0.0609
     81 H38        -0.3978    0.3245   -1.8868 H         1 <0>         0.1063
     82 H39        -1.3238    5.7221   -4.5349 H         1 <0>         0.4792
     83 H40        -1.5101    7.3807   -4.0580 H         1 <0>         0.4819
     84 H41        -1.4576    6.7856   -0.4800 H         1 <0>         0.4802
     85 H42        -1.5888    8.0004   -1.7189 H         1 <0>         0.4826
     86 H43         0.8216    0.7626    0.7549 H         1 <0>         0.3101
     87 H44        -2.9331   -3.6495    0.0592 H         1 <0>         0.3087
     88 H45        -1.1423    4.0061   -2.8316 H         1 <0>         0.4846
     89 H46        -9.1777   -0.0400   -0.6042 H         1 <0>         0.4194
     90 H47         1.8515   -6.8926    0.0654 H         1 <0>         0.4036
     91 H48         2.9636    1.7601   -1.6856 H         1 <0>         0.4114
     92 H49        -4.1021   -2.1097   -3.8898 H         1 <0>         0.3944
@<TRIPOS>BOND
     1    1    3 ar
     2    1    5 ar
     3    2    4 ar
     4    2    5 ar
     5    3    6 ar
     6    4    6 ar
     7    5   21 1
     8    6   40 1
     9    7   15 1
    10    7   34 am
    11    7   37 2
    12    8   27 1
    13    8   31 am
    14    8   38 2
    15    9   28 1
    16    9   35 am
    17    9   39 2
    18   10   32 1
    19   10   33 1
    20   10   36 1
    21   11   12 1
    22   11   16 1
    23   12   18 1
    24   13   15 1
    25   13   16 1
    26   14   17 1
    27   14   18 1
    28   15   31 1
    29   16   17 1
    30   17   31 1
    31   18   41 1
    32   19   29 1
    33   20   29 1
    34   21   28 1
    35   22   23 1
    36   22   25 1
    37   23   30 1
    38   24   27 1
    39   24   29 1
    40   25   36 1
    41   26   30 1
    42   26   42 1
    43   27   35 1
    44   28   43 1
    45   30   34 1
    46    1   44 1
    47    2   45 1
    48    3   46 1
    49    4   47 1
    50   11   48 1
    51   11   49 1
    52   12   50 1
    53   12   51 1
    54   13   52 1
    55   13   53 1
    56   14   54 1
    57   14   55 1
    58   15   56 1
    59   16   57 1
    60   17   58 1
    61   18   59 1
    62   19   60 1
    63   19   61 1
    64   19   62 1
    65   20   63 1
    66   20   64 1
    67   20   65 1
    68   21   66 1
    69   21   67 1
    70   22   68 1
    71   22   69 1
    72   23   70 1
    73   23   71 1
    74   24   72 1
    75   24   73 1
    76   25   74 1
    77   25   75 1
    78   26   76 1
    79   26   77 1
    80   27   78 1
    81   28   79 1
    82   29   80 1
    83   30   81 1
    84   32   82 1
    85   32   83 1
    86   33   84 1
    87   33   85 1
    88   34   86 1
    89   35   87 1
    90   36   88 1
    91   40   89 1
    92   41   90 1
    93   42   91 1
    94   43   92 1
@<TRIPOS>MOLECULE
1a2c_ligand_280
   92    94     0     0     0
SMALL
USER_CHARGES

mmff94s_NoEstat = 126.50
@<TRIPOS>ATOM
      1 C1         -6.2610   -3.0964   -3.6304 C.ar      1 <0>        -0.0708
      2 C2         -6.2318   -1.1340   -2.2214 C.ar      1 <0>        -0.0872
      3 C3         -7.6318   -3.2331   -3.4114 C.ar      1 <0>        -0.2241
      4 C4         -7.6026   -1.2708   -2.0024 C.ar      1 <0>        -0.1600
      5 C5         -5.5795   -2.0487   -3.0325 C.ar      1 <0>        -0.1356
      6 C6         -8.3026   -2.3203   -2.5974 C.ar      1 <0>         0.1290
      7 C7         -0.0512   -1.0561    0.2993 C.2       1 <0>         0.6664
      8 C8         -1.8469   -3.0457    2.1630 C.2       1 <0>         0.6651
      9 C9         -3.1350   -1.8416   -0.9503 C.2       1 <0>         0.6454
     10 C10        -3.3725    4.8193   -0.1970 C.cat     1 <0>         0.6349
     11 C11         2.5186   -3.1911    0.6823 C.3       1 <0>        -0.0642
     12 C12         2.4580   -4.6414    0.2376 C.3       1 <0>        -0.0747
     13 C13         1.4874   -1.4827    2.2418 C.3       1 <0>        -0.0873
     14 C14         0.4946   -5.0934    1.7133 C.3       1 <0>        -0.1371
     15 C15         0.0412   -1.4176    1.7503 C.3       1 <0>         0.0360
     16 C16         1.8865   -2.9529    2.0632 C.3       1 <0>        -0.0720
     17 C17         0.5665   -3.7001    2.3454 C.3       1 <0>         0.1201
     18 C18         1.0248   -5.1525    0.2868 C.3       1 <0>         0.1453
     19 C19        -3.4345   -0.1597    3.7904 C.3       1 <0>        -0.0968
     20 C20        -3.1391   -2.5257    4.5483 C.3       1 <0>        -0.0986
     21 C21        -4.0956   -1.9002   -3.2701 C.3       1 <0>        -0.0191
     22 C22         0.0133    3.1737   -0.5440 C.3       1 <0>        -0.1009
     23 C23        -0.4337    2.0012   -1.4250 C.3       1 <0>        -0.0942
     24 C24        -4.1436   -2.0954    2.2850 C.3       1 <0>        -0.0988
     25 C25        -0.9571    4.3475   -0.6564 C.3       1 <0>         0.1966
     26 C26         1.9058    0.9774   -1.7696 C.3       1 <0>         0.1128
     27 C27        -2.8325   -2.1090    1.5076 C.3       1 <0>         0.0786
     28 C28        -3.2671   -2.6599   -2.2288 C.3       1 <0>         0.0744
     29 C29        -4.0154   -1.5731    3.7302 C.3       1 <0>        -0.0678
     30 C30         0.4555    0.7445   -1.3388 C.3       1 <0>         0.1065
     31 N1         -0.4979   -2.7598    1.9615 N.am      1 <0>        -0.4315
     32 N2         -4.6252    4.3843    0.2232 N.pl3     1 <0>        -0.8671
     33 N3         -3.2119    6.1429   -0.5923 N.pl3     1 <0>        -0.8581
     34 N4          0.4455    0.1980   -0.0008 N.am      1 <0>        -0.5687
     35 N5         -2.9650   -2.6361    0.1813 N.am      1 <0>        -0.5746
     36 N6         -2.2743    3.9424   -0.2264 N.pl3     1 <0>        -0.7533
     37 O1         -0.5362   -1.8555   -0.4928 O.2       1 <0>        -0.5843
     38 O2         -2.2659   -3.9924    2.8322 O.2       1 <0>        -0.6812
     39 O3         -3.1903   -0.6139   -0.9436 O.2       1 <0>        -0.5788
     40 O4         -9.6405   -2.4529   -2.3851 O.3       1 <0>        -0.4938
     41 O5          0.9879   -6.5072   -0.1510 O.3       1 <0>        -0.6030
     42 O6          2.6391   -0.2366   -1.6731 O.3       1 <0>        -0.5860
     43 O7         -1.9649   -2.8845   -2.7495 O.3       1 <0>        -0.6021
     44 H1         -5.7471   -3.8124   -4.2659 H         1 <0>         0.1412
     45 H2         -5.6945   -0.3129   -1.7539 H         1 <0>         0.1451
     46 H3         -8.1715   -4.0526   -3.8778 H         1 <0>         0.1336
     47 H4         -8.1198   -0.5558   -1.3680 H         1 <0>         0.1567
     48 H5          3.5627   -2.8549    0.7003 H         1 <0>         0.0649
     49 H6          2.0259   -2.5829   -0.0837 H         1 <0>         0.0476
     50 H7          2.8567   -4.7427   -0.7790 H         1 <0>         0.0641
     51 H8          3.1032   -5.2618    0.8729 H         1 <0>         0.0484
     52 H9          2.1569   -0.7868    1.7257 H         1 <0>         0.0596
     53 H10         1.5124   -1.2395    3.3116 H         1 <0>         0.0757
     54 H11         1.0921   -5.7802    2.3299 H         1 <0>         0.0782
     55 H12        -0.5175   -5.5090    1.7393 H         1 <0>         0.0812
     56 H13        -0.5378   -0.6778    2.3126 H         1 <0>         0.0731
     57 H14         2.6304   -3.2407    2.8169 H         1 <0>         0.0511
     58 H15         0.4523   -3.8218    3.4319 H         1 <0>         0.0753
     59 H16         0.3841   -4.5700   -0.3844 H         1 <0>         0.0427
     60 H17        -3.2863    0.1550    4.8292 H         1 <0>         0.0450
     61 H18        -4.1066    0.5680    3.3260 H         1 <0>         0.0406
     62 H19        -2.4667   -0.1061    3.2804 H         1 <0>         0.0274
     63 H20        -2.1236   -2.5806    4.1412 H         1 <0>         0.0476
     64 H21        -3.0691   -2.1929    5.5894 H         1 <0>         0.0170
     65 H22        -3.5594   -3.5370    4.5502 H         1 <0>         0.0477
     66 H23        -3.8334   -0.8338   -3.2546 H         1 <0>         0.0814
     67 H24        -3.8723   -2.2483   -4.2864 H         1 <0>         0.0685
     68 H25         0.0724    2.8576    0.5040 H         1 <0>         0.1016
     69 H26         1.0181    3.5045   -0.8331 H         1 <0>         0.0660
     70 H27        -0.4694    2.3356   -2.4708 H         1 <0>         0.0512
     71 H28        -1.4639    1.7294   -1.1616 H         1 <0>         0.0454
     72 H29        -4.5642   -3.1100    2.3009 H         1 <0>         0.0575
     73 H30        -4.8775   -1.4748    1.7520 H         1 <0>         0.0743
     74 H31        -1.0102    4.6987   -1.6923 H         1 <0>         0.0662
     75 H32        -0.6205    5.1846   -0.0362 H         1 <0>         0.0622
     76 H33         2.4001    1.7344   -1.1517 H         1 <0>         0.0321
     77 H34         1.9468    1.3120   -2.8125 H         1 <0>         0.0204
     78 H35        -2.3644   -1.1272    1.4485 H         1 <0>         0.0749
     79 H36        -3.7138   -3.6321   -1.9889 H         1 <0>         0.0719
     80 H37        -5.0090   -1.5561    4.1946 H         1 <0>         0.0609
     81 H38         0.0149    0.0012   -2.0158 H         1 <0>         0.1063
     82 H39        -4.7900    3.4259    0.5191 H         1 <0>         0.4792
     83 H40        -5.4193    5.0200    0.2433 H         1 <0>         0.4819
     84 H41        -2.3100    6.4939   -0.9052 H         1 <0>         0.4802
     85 H42        -3.9923    6.7951   -0.5780 H         1 <0>         0.4826
     86 H43         0.8216    0.7626    0.7549 H         1 <0>         0.3101
     87 H44        -2.9331   -3.6495    0.0592 H         1 <0>         0.3087
     88 H45        -2.4489    2.9764    0.0762 H         1 <0>         0.4846
     89 H46        -9.8911   -3.3904   -2.3935 H         1 <0>         0.4194
     90 H47         1.8515   -6.8926    0.0654 H         1 <0>         0.4036
     91 H48         2.8853   -0.3414   -0.7399 H         1 <0>         0.4114
     92 H49        -2.0150   -2.7320   -3.7072 H         1 <0>         0.3944
@<TRIPOS>BOND
     1    1    3 ar
     2    1    5 ar
     3    2    4 ar
     4    2    5 ar
     5    3    6 ar
     6    4    6 ar
     7    5   21 1
     8    6   40 1
     9    7   15 1
    10    7   34 am
    11    7   37 2
    12    8   27 1
    13    8   31 am
    14    8   38 2
    15    9   28 1
    16    9   35 am
    17    9   39 2
    18   10   32 1
    19   10   33 1
    20   10   36 1
    21   11   12 1
    22   11   16 1
    23   12   18 1
    24   13   15 1
    25   13   16 1
    26   14   17 1
    27   14   18 1
    28   15   31 1
    29   16   17 1
    30   17   31 1
    31   18   41 1
    32   19   29 1
    33   20   29 1
    34   21   28 1
    35   22   23 1
    36   22   25 1
    37   23   30 1
    38   24   27 1
    39   24   29 1
    40   25   36 1
    41   26   30 1
    42   26   42 1
    43   27   35 1
    44   28   43 1
    45   30   34 1
    46    1   44 1
    47    2   45 1
    48    3   46 1
    49    4   47 1
    50   11   48 1
    51   11   49 1
    52   12   50 1
    53   12   51 1
    54   13   52 1
    55   13   53 1
    56   14   54 1
    57   14   55 1
    58   15   56 1
    59   16   57 1
    60   17   58 1
    61   18   59 1
    62   19   60 1
    63   19   61 1
    64   19   62 1
    65   20   63 1
    66   20   64 1
    67   20   65 1
    68   21   66 1
    69   21   67 1
    70   22   68 1
    71   22   69 1
    72   23   70 1
    73   23   71 1
    74   24   72 1
    75   24   73 1
    76   25   74 1
    77   25   75 1
    78   26   76 1
    79   26   77 1
    80   27   78 1
    81   28   79 1
    82   29   80 1
    83   30   81 1
    84   32   82 1
    85   32   83 1
    86   33   84 1
    87   33   85 1
    88   34   86 1
    89   35   87 1
    90   36   88 1
    91   40   89 1
    92   41   90 1
    93   42   91 1
    94   43   92 1
@<TRIPOS>MOLECULE
1a2c_ligand_281
   92    94     0     0     0
SMALL
USER_CHARGES

mmff94s_NoEstat = 126.65
@<TRIPOS>ATOM
      1 C1          7.9845    0.0816    2.2749 C.ar      1 <0>        -0.0708
      2 C2          6.1303    0.8743    3.6055 C.ar      1 <0>        -0.0872
      3 C3          7.8082    1.1484    1.3937 C.ar      1 <0>        -0.2241
      4 C4          5.9540    1.9410    2.7243 C.ar      1 <0>        -0.1600
      5 C5          7.1433   -0.0412    3.3690 C.ar      1 <0>        -0.1356
      6 C6          6.7929    2.0781    1.6184 C.ar      1 <0>         0.1290
      7 C7          0.1755   -1.0766    0.1327 C.2       1 <0>         0.6664
      8 C8          2.3785   -0.9757    2.2764 C.2       1 <0>         0.6651
      9 C9          5.0726   -2.2851    4.3841 C.2       1 <0>         0.6454
     10 C10        -2.8436    4.8300   -0.3839 C.cat     1 <0>         0.6349
     11 C11         2.4521   -5.3069   -0.2561 C.3       1 <0>        -0.0642
     12 C12         1.2413   -5.9691    0.3982 C.3       1 <0>        -0.0747
     13 C13         1.5734   -2.9393   -0.7647 C.3       1 <0>        -0.0873
     14 C14         1.0938   -4.1277    2.1072 C.3       1 <0>        -0.1371
     15 C15         1.5650   -1.6216    0.0133 C.3       1 <0>         0.0360
     16 C16         2.5597   -3.8106    0.0203 C.3       1 <0>        -0.0720
     17 C17         2.2934   -3.4012    1.4755 C.3       1 <0>         0.1201
     18 C18         1.1411   -5.6363    1.8853 C.3       1 <0>         0.1453
     19 C19         0.2658   -1.3152    5.2616 C.3       1 <0>        -0.0968
     20 C20         0.5109    0.5548    3.6177 C.3       1 <0>        -0.0986
     21 C21         7.3346   -1.1957    4.3233 C.3       1 <0>        -0.0191
     22 C22        -0.8392    2.2664   -0.8852 C.3       1 <0>        -0.1009
     23 C23        -1.6754    1.2905   -1.7214 C.3       1 <0>        -0.0942
     24 C24         2.5770   -0.3966    4.6867 C.3       1 <0>        -0.0988
     25 C25        -0.9003    3.6784   -1.4634 C.3       1 <0>         0.1966
     26 C26        -2.5783   -1.1036   -2.0263 C.3       1 <0>         0.1128
     27 C27         2.8496   -1.4560    3.6253 C.3       1 <0>         0.0786
     28 C28         6.5149   -2.4235    3.9131 C.3       1 <0>         0.0744
     29 C29         1.0824   -0.0766    4.8902 C.3       1 <0>        -0.0678
     30 C30        -1.7203   -0.1547   -1.1858 C.3       1 <0>         0.1065
     31 N1          2.0322   -1.9586    1.3590 N.am      1 <0>        -0.4315
     32 N2         -4.1623    5.2696   -0.4352 N.pl3     1 <0>        -0.8671
     33 N3         -2.0933    5.0693    0.7623 N.pl3     1 <0>        -0.8581
     34 N4         -0.3878   -0.7030   -1.0725 N.am      1 <0>        -0.5687
     35 N5          4.2458   -1.7091    3.4221 N.am      1 <0>        -0.5746
     36 N6         -2.2644    4.1511   -1.4699 N.pl3     1 <0>        -0.7533
     37 O1         -0.3509   -1.0007    1.2367 O.2       1 <0>        -0.5843
     38 O2          2.3230    0.2335    2.0409 O.2       1 <0>        -0.6812
     39 O3          4.7067   -2.6383    5.5030 O.2       1 <0>        -0.5788
     40 O4          6.6219    3.1200    0.7594 O.3       1 <0>        -0.4938
     41 O5          2.2611   -6.1715    2.5852 O.3       1 <0>        -0.6030
     42 O6         -2.5724   -2.4015   -1.4465 O.3       1 <0>        -0.5860
     43 O7          7.0737   -3.5771    4.5249 O.3       1 <0>        -0.6021
     44 H1          8.7780   -0.6378    2.0915 H         1 <0>         0.1412
     45 H2          5.4721    0.7756    4.4648 H         1 <0>         0.1451
     46 H3          8.4649    1.2497    0.5342 H         1 <0>         0.1336
     47 H4          5.1617    2.6627    2.9053 H         1 <0>         0.1567
     48 H5          3.3605   -5.7937    0.1218 H         1 <0>         0.0649
     49 H6          2.4319   -5.4897   -1.3370 H         1 <0>         0.0476
     50 H7          0.3241   -5.6545   -0.1129 H         1 <0>         0.0641
     51 H8          1.3294   -7.0545    0.2691 H         1 <0>         0.0484
     52 H9          0.5754   -3.3919   -0.8000 H         1 <0>         0.0596
     53 H10         1.8977   -2.7914   -1.8003 H         1 <0>         0.0757
     54 H11         1.0807   -3.9085    3.1823 H         1 <0>         0.0782
     55 H12         0.1523   -3.7376    1.7002 H         1 <0>         0.0812
     56 H13         2.2202   -0.8626   -0.4249 H         1 <0>         0.0731
     57 H14         3.5726   -3.4842   -0.2571 H         1 <0>         0.0511
     58 H15         3.1875   -3.5701    2.0864 H         1 <0>         0.0753
     59 H16         0.2435   -6.1003    2.3075 H         1 <0>         0.0427
     60 H17        -0.8003   -1.0721    5.3268 H         1 <0>         0.0450
     61 H18         0.5656   -1.7135    6.2354 H         1 <0>         0.0406
     62 H19         0.3859   -2.1083    4.5157 H         1 <0>         0.0274
     63 H20         0.5734   -0.1347    2.7689 H         1 <0>         0.0476
     64 H21        -0.5410    0.8267    3.7565 H         1 <0>         0.0170
     65 H22         1.0580    1.4667    3.3557 H         1 <0>         0.0477
     66 H23         7.0532   -0.8763    5.3357 H         1 <0>         0.0814
     67 H24         8.4054   -1.4304    4.3706 H         1 <0>         0.0685
     68 H25        -1.2041    2.2870    0.1483 H         1 <0>         0.1016
     69 H26         0.2054    1.9349   -0.8467 H         1 <0>         0.0660
     70 H27        -1.2820    1.2733   -2.7469 H         1 <0>         0.0512
     71 H28        -2.7004    1.6751   -1.7996 H         1 <0>         0.0454
     72 H29         3.1135    0.5249    4.4229 H         1 <0>         0.0575
     73 H30         2.9989   -0.7249    5.6470 H         1 <0>         0.0743
     74 H31        -0.5130    3.6867   -2.4878 H         1 <0>         0.0662
     75 H32        -0.2876    4.3637   -0.8686 H         1 <0>         0.0622
     76 H33        -2.2157   -1.1795   -3.0567 H         1 <0>         0.0321
     77 H34        -3.6169   -0.7550   -2.0576 H         1 <0>         0.0204
     78 H35         2.3493   -2.4014    3.8315 H         1 <0>         0.0749
     79 H36         6.5257   -2.5713    2.8267 H         1 <0>         0.0719
     80 H37         0.9798    0.6574    5.6989 H         1 <0>         0.0609
     81 H38        -2.1562   -0.1031   -0.1797 H         1 <0>         0.1063
     82 H39        -4.7478    5.1189   -1.2524 H         1 <0>         0.4792
     83 H40        -4.5801    5.7614    0.3514 H         1 <0>         0.4819
     84 H41        -1.1264    4.7617    0.8333 H         1 <0>         0.4802
     85 H42        -2.4924    5.5575    1.5604 H         1 <0>         0.4826
     86 H43         0.1607   -0.8193   -1.9192 H         1 <0>         0.3101
     87 H44         4.6569   -1.4532    2.5231 H         1 <0>         0.3087
     88 H45        -2.8633    4.0011   -2.2909 H         1 <0>         0.4846
     89 H46         6.8643    2.8557   -0.1424 H         1 <0>         0.4194
     90 H47         2.7873   -5.4145    2.8873 H         1 <0>         0.4036
     91 H48        -1.7464   -2.8287   -1.7250 H         1 <0>         0.4114
     92 H49         7.9632   -3.3317    4.8278 H         1 <0>         0.3944
@<TRIPOS>BOND
     1    1    3 ar
     2    1    5 ar
     3    2    4 ar
     4    2    5 ar
     5    3    6 ar
     6    4    6 ar
     7    5   21 1
     8    6   40 1
     9    7   15 1
    10    7   34 am
    11    7   37 2
    12    8   27 1
    13    8   31 am
    14    8   38 2
    15    9   28 1
    16    9   35 am
    17    9   39 2
    18   10   32 1
    19   10   33 1
    20   10   36 1
    21   11   12 1
    22   11   16 1
    23   12   18 1
    24   13   15 1
    25   13   16 1
    26   14   17 1
    27   14   18 1
    28   15   31 1
    29   16   17 1
    30   17   31 1
    31   18   41 1
    32   19   29 1
    33   20   29 1
    34   21   28 1
    35   22   23 1
    36   22   25 1
    37   23   30 1
    38   24   27 1
    39   24   29 1
    40   25   36 1
    41   26   30 1
    42   26   42 1
    43   27   35 1
    44   28   43 1
    45   30   34 1
    46    1   44 1
    47    2   45 1
    48    3   46 1
    49    4   47 1
    50   11   48 1
    51   11   49 1
    52   12   50 1
    53   12   51 1
    54   13   52 1
    55   13   53 1
    56   14   54 1
    57   14   55 1
    58   15   56 1
    59   16   57 1
    60   17   58 1
    61   18   59 1
    62   19   60 1
    63   19   61 1
    64   19   62 1
    65   20   63 1
    66   20   64 1
    67   20   65 1
    68   21   66 1
    69   21   67 1
    70   22   68 1
    71   22   69 1
    72   23   70 1
    73   23   71 1
    74   24   72 1
    75   24   73 1
    76   25   74 1
    77   25   75 1
    78   26   76 1
    79   26   77 1
    80   27   78 1
    81   28   79 1
    82   29   80 1
    83   30   81 1
    84   32   82 1
    85   32   83 1
    86   33   84 1
    87   33   85 1
    88   34   86 1
    89   35   87 1
    90   36   88 1
    91   40   89 1
    92   41   90 1
    93   42   91 1
    94   43   92 1
@<TRIPOS>MOLECULE
1a2c_ligand_282
   92    94     0     0     0
SMALL
USER_CHARGES

mmff94s_NoEstat = 126.67
@<TRIPOS>ATOM
      1 C1          7.8430   -0.2933    5.3545 C.ar      1 <0>        -0.0708
      2 C2          6.0978   -1.3476    6.6505 C.ar      1 <0>        -0.0872
      3 C3          7.6403    0.8982    6.0508 C.ar      1 <0>        -0.2241
      4 C4          5.8950   -0.1561    7.3468 C.ar      1 <0>        -0.1600
      5 C5          7.0691   -1.4002    5.6637 C.ar      1 <0>        -0.1356
      6 C6          6.6663    0.9668    7.0470 C.ar      1 <0>         0.1290
      7 C7          0.1755   -1.0766    0.1327 C.2       1 <0>         0.6664
      8 C8          2.3785   -0.9757    2.2764 C.2       1 <0>         0.6651
      9 C9          4.9366   -2.7533    4.0331 C.2       1 <0>         0.6454
     10 C10        -0.9027    3.0370   -5.8579 C.cat     1 <0>         0.6349
     11 C11         2.4521   -5.3069   -0.2561 C.3       1 <0>        -0.0642
     12 C12         1.2413   -5.9691    0.3982 C.3       1 <0>        -0.0747
     13 C13         1.5734   -2.9393   -0.7647 C.3       1 <0>        -0.0873
     14 C14         1.0938   -4.1277    2.1072 C.3       1 <0>        -0.1371
     15 C15         1.5650   -1.6216    0.0133 C.3       1 <0>         0.0360
     16 C16         2.5597   -3.8106    0.0203 C.3       1 <0>        -0.0720
     17 C17         2.2934   -3.4012    1.4755 C.3       1 <0>         0.1201
     18 C18         1.1411   -5.6363    1.8853 C.3       1 <0>         0.1453
     19 C19         0.2658   -1.3152    5.2616 C.3       1 <0>        -0.0968
     20 C20         0.5109    0.5548    3.6177 C.3       1 <0>        -0.0986
     21 C21         7.2890   -2.6903    4.9103 C.3       1 <0>        -0.0191
     22 C22        -0.8155    2.0502   -2.2095 C.3       1 <0>        -0.1009
     23 C23        -1.7941    0.8762   -2.3301 C.3       1 <0>        -0.0942
     24 C24         2.5770   -0.3966    4.6867 C.3       1 <0>        -0.0988
     25 C25        -1.0015    3.0414   -3.3563 C.3       1 <0>         0.1966
     26 C26        -2.7214   -1.3050   -1.3187 C.3       1 <0>         0.1128
     27 C27         2.8496   -1.4560    3.6253 C.3       1 <0>         0.0786
     28 C28         6.4127   -2.7813    3.6567 C.3       1 <0>         0.0744
     29 C29         1.0824   -0.0766    4.8902 C.3       1 <0>        -0.0678
     30 C30        -1.7203   -0.1547   -1.1858 C.3       1 <0>         0.1065
     31 N1          2.0322   -1.9586    1.3590 N.am      1 <0>        -0.4315
     32 N2         -0.6764    2.3611   -7.0524 N.pl3     1 <0>        -0.8671
     33 N3         -1.2564    4.3814   -5.8961 N.pl3     1 <0>        -0.8581
     34 N4         -0.3878   -0.7030   -1.0725 N.am      1 <0>        -0.5687
     35 N5          4.2458   -1.7091    3.4221 N.am      1 <0>        -0.5746
     36 N6         -0.7789    2.3814   -4.6207 N.pl3     1 <0>        -0.7533
     37 O1         -0.3509   -1.0007    1.2367 O.2       1 <0>        -0.5843
     38 O2          2.3230    0.2335    2.0409 O.2       1 <0>        -0.6812
     39 O3          4.4369   -3.5674    4.8063 O.2       1 <0>        -0.5788
     40 O4          6.4696    2.1290    7.7276 O.3       1 <0>        -0.4938
     41 O5          2.2611   -6.1715    2.5852 O.3       1 <0>        -0.6030
     42 O6         -2.4752   -2.0231   -2.5206 O.3       1 <0>        -0.5860
     43 O7          6.6796   -4.0096    2.9951 O.3       1 <0>        -0.6021
     44 H1          8.6040   -0.3371    4.5801 H         1 <0>         0.1412
     45 H2          5.4923   -2.2176    6.8910 H         1 <0>         0.1451
     46 H3          8.2443    1.7693    5.8128 H         1 <0>         0.1336
     47 H4          5.1353   -0.1092    8.1225 H         1 <0>         0.1567
     48 H5          3.3605   -5.7937    0.1218 H         1 <0>         0.0649
     49 H6          2.4319   -5.4897   -1.3370 H         1 <0>         0.0476
     50 H7          0.3241   -5.6545   -0.1129 H         1 <0>         0.0641
     51 H8          1.3294   -7.0545    0.2691 H         1 <0>         0.0484
     52 H9          0.5754   -3.3919   -0.8000 H         1 <0>         0.0596
     53 H10         1.8977   -2.7914   -1.8003 H         1 <0>         0.0757
     54 H11         1.0807   -3.9085    3.1823 H         1 <0>         0.0782
     55 H12         0.1523   -3.7376    1.7002 H         1 <0>         0.0812
     56 H13         2.2202   -0.8626   -0.4249 H         1 <0>         0.0731
     57 H14         3.5726   -3.4842   -0.2571 H         1 <0>         0.0511
     58 H15         3.1875   -3.5701    2.0864 H         1 <0>         0.0753
     59 H16         0.2435   -6.1003    2.3075 H         1 <0>         0.0427
     60 H17        -0.8003   -1.0721    5.3268 H         1 <0>         0.0450
     61 H18         0.5656   -1.7135    6.2354 H         1 <0>         0.0406
     62 H19         0.3859   -2.1083    4.5157 H         1 <0>         0.0274
     63 H20         0.5734   -0.1347    2.7689 H         1 <0>         0.0476
     64 H21        -0.5410    0.8267    3.7565 H         1 <0>         0.0170
     65 H22         1.0580    1.4667    3.3557 H         1 <0>         0.0477
     66 H23         7.0803   -3.5371    5.5778 H         1 <0>         0.0814
     67 H24         8.3541   -2.7647    4.6569 H         1 <0>         0.0685
     68 H25        -0.9672    2.5721   -1.2575 H         1 <0>         0.1016
     69 H26         0.2183    1.6845   -2.2100 H         1 <0>         0.0660
     70 H27        -1.6130    0.3584   -3.2819 H         1 <0>         0.0512
     71 H28        -2.8171    1.2691   -2.3922 H         1 <0>         0.0454
     72 H29         3.1135    0.5249    4.4229 H         1 <0>         0.0575
     73 H30         2.9989   -0.7249    5.6470 H         1 <0>         0.0743
     74 H31        -0.2967    3.8737   -3.2572 H         1 <0>         0.0662
     75 H32        -2.0142    3.4573   -3.3438 H         1 <0>         0.0622
     76 H33        -3.7565   -0.9478   -1.3308 H         1 <0>         0.0321
     77 H34        -2.6144   -2.0048   -0.4820 H         1 <0>         0.0204
     78 H35         2.3493   -2.4014    3.8315 H         1 <0>         0.0749
     79 H36         6.6213   -1.9623    2.9582 H         1 <0>         0.0719
     80 H37         0.9798    0.6574    5.6989 H         1 <0>         0.0609
     81 H38        -1.9472    0.3883   -0.2591 H         1 <0>         0.1063
     82 H39        -0.4141    1.3793   -7.0731 H         1 <0>         0.4792
     83 H40        -0.7658    2.8372   -7.9471 H         1 <0>         0.4819
     84 H41        -1.4289    4.9057   -5.0418 H         1 <0>         0.4802
     85 H42        -1.3529    4.8755   -6.7800 H         1 <0>         0.4826
     86 H43         0.1607   -0.8193   -1.9192 H         1 <0>         0.3101
     87 H44         4.7623   -1.0902    2.7952 H         1 <0>         0.3087
     88 H45        -0.5155    1.3889   -4.6505 H         1 <0>         0.4846
     89 H46         6.6478    2.8900    7.1522 H         1 <0>         0.4194
     90 H47         2.7873   -5.4145    2.8873 H         1 <0>         0.4036
     91 H48        -2.8906   -1.5183   -3.2383 H         1 <0>         0.4114
     92 H49         7.5148   -4.3480    3.3569 H         1 <0>         0.3944
@<TRIPOS>BOND
     1    1    3 ar
     2    1    5 ar
     3    2    4 ar
     4    2    5 ar
     5    3    6 ar
     6    4    6 ar
     7    5   21 1
     8    6   40 1
     9    7   15 1
    10    7   34 am
    11    7   37 2
    12    8   27 1
    13    8   31 am
    14    8   38 2
    15    9   28 1
    16    9   35 am
    17    9   39 2
    18   10   32 1
    19   10   33 1
    20   10   36 1
    21   11   12 1
    22   11   16 1
    23   12   18 1
    24   13   15 1
    25   13   16 1
    26   14   17 1
    27   14   18 1
    28   15   31 1
    29   16   17 1
    30   17   31 1
    31   18   41 1
    32   19   29 1
    33   20   29 1
    34   21   28 1
    35   22   23 1
    36   22   25 1
    37   23   30 1
    38   24   27 1
    39   24   29 1
    40   25   36 1
    41   26   30 1
    42   26   42 1
    43   27   35 1
    44   28   43 1
    45   30   34 1
    46    1   44 1
    47    2   45 1
    48    3   46 1
    49    4   47 1
    50   11   48 1
    51   11   49 1
    52   12   50 1
    53   12   51 1
    54   13   52 1
    55   13   53 1
    56   14   54 1
    57   14   55 1
    58   15   56 1
    59   16   57 1
    60   17   58 1
    61   18   59 1
    62   19   60 1
    63   19   61 1
    64   19   62 1
    65   20   63 1
    66   20   64 1
    67   20   65 1
    68   21   66 1
    69   21   67 1
    70   22   68 1
    71   22   69 1
    72   23   70 1
    73   23   71 1
    74   24   72 1
    75   24   73 1
    76   25   74 1
    77   25   75 1
    78   26   76 1
    79   26   77 1
    80   27   78 1
    81   28   79 1
    82   29   80 1
    83   30   81 1
    84   32   82 1
    85   32   83 1
    86   33   84 1
    87   33   85 1
    88   34   86 1
    89   35   87 1
    90   36   88 1
    91   40   89 1
    92   41   90 1
    93   42   91 1
    94   43   92 1
@<TRIPOS>MOLECULE
1a2c_ligand_283
   92    94     0     0     0
SMALL
USER_CHARGES

mmff94s_NoEstat = 126.71
@<TRIPOS>ATOM
      1 C1          9.5872   -1.8038    3.9500 C.ar      1 <0>        -0.0708
      2 C2          8.4392   -0.5475    2.2351 C.ar      1 <0>        -0.0872
      3 C3         10.7989   -1.5958    3.2912 C.ar      1 <0>        -0.2241
      4 C4          9.6510   -0.3395    1.5763 C.ar      1 <0>        -0.1600
      5 C5          8.4236   -1.2769    3.4131 C.ar      1 <0>        -0.1356
      6 C6         10.8309   -0.8636    2.1043 C.ar      1 <0>         0.1290
      7 C7          0.1755   -1.0766    0.1327 C.2       1 <0>         0.6664
      8 C8          2.3785   -0.9757    2.2764 C.2       1 <0>         0.6651
      9 C9          4.9366   -2.7533    4.0331 C.2       1 <0>         0.6454
     10 C10         0.9517    3.9167   -3.1311 C.cat     1 <0>         0.6349
     11 C11         2.4521   -5.3069   -0.2561 C.3       1 <0>        -0.0642
     12 C12         1.2413   -5.9691    0.3982 C.3       1 <0>        -0.0747
     13 C13         1.5734   -2.9393   -0.7647 C.3       1 <0>        -0.0873
     14 C14         1.0938   -4.1277    2.1072 C.3       1 <0>        -0.1371
     15 C15         1.5650   -1.6216    0.0133 C.3       1 <0>         0.0360
     16 C16         2.5597   -3.8106    0.0203 C.3       1 <0>        -0.0720
     17 C17         2.2934   -3.4012    1.4755 C.3       1 <0>         0.1201
     18 C18         1.1411   -5.6363    1.8853 C.3       1 <0>         0.1453
     19 C19         0.2658   -1.3152    5.2616 C.3       1 <0>        -0.0968
     20 C20         0.5109    0.5548    3.6177 C.3       1 <0>        -0.0986
     21 C21         7.1118   -1.5015    4.1267 C.3       1 <0>        -0.0191
     22 C22        -0.8392    2.2664   -0.8852 C.3       1 <0>        -0.1009
     23 C23        -1.6754    1.2905   -1.7214 C.3       1 <0>        -0.0942
     24 C24         2.5770   -0.3966    4.6867 C.3       1 <0>        -0.0988
     25 C25        -0.9003    3.6784   -1.4634 C.3       1 <0>         0.1966
     26 C26        -2.5783   -1.1036   -2.0263 C.3       1 <0>         0.1128
     27 C27         2.8496   -1.4560    3.6253 C.3       1 <0>         0.0786
     28 C28         6.4127   -2.7813    3.6567 C.3       1 <0>         0.0744
     29 C29         1.0824   -0.0766    4.8902 C.3       1 <0>        -0.0678
     30 C30        -1.7203   -0.1547   -1.1858 C.3       1 <0>         0.1065
     31 N1          2.0322   -1.9586    1.3590 N.am      1 <0>        -0.4315
     32 N2          1.3921    3.9069   -4.4505 N.pl3     1 <0>        -0.8671
     33 N3          1.8661    4.1651   -2.1131 N.pl3     1 <0>        -0.8581
     34 N4         -0.3878   -0.7030   -1.0725 N.am      1 <0>        -0.5687
     35 N5          4.2458   -1.7091    3.4221 N.am      1 <0>        -0.5746
     36 N6         -0.3977    3.6803   -2.8168 N.pl3     1 <0>        -0.7533
     37 O1         -0.3509   -1.0007    1.2367 O.2       1 <0>        -0.5843
     38 O2          2.3230    0.2335    2.0409 O.2       1 <0>        -0.6812
     39 O3          4.4369   -3.5674    4.8063 O.2       1 <0>        -0.5788
     40 O4         12.0136   -0.6593    1.4623 O.3       1 <0>        -0.4938
     41 O5          2.2611   -6.1715    2.5852 O.3       1 <0>        -0.6030
     42 O6         -2.5724   -2.4015   -1.4465 O.3       1 <0>        -0.5860
     43 O7          7.0137   -3.8976    4.2972 O.3       1 <0>        -0.6021
     44 H1          9.5722   -2.3756    4.8738 H         1 <0>         0.1412
     45 H2          7.5248   -0.1351    1.8164 H         1 <0>         0.1451
     46 H3         11.7145   -2.0065    3.7076 H         1 <0>         0.1336
     47 H4          9.6695    0.2326    0.6524 H         1 <0>         0.1567
     48 H5          3.3605   -5.7937    0.1218 H         1 <0>         0.0649
     49 H6          2.4319   -5.4897   -1.3370 H         1 <0>         0.0476
     50 H7          0.3241   -5.6545   -0.1129 H         1 <0>         0.0641
     51 H8          1.3294   -7.0545    0.2691 H         1 <0>         0.0484
     52 H9          0.5754   -3.3919   -0.8000 H         1 <0>         0.0596
     53 H10         1.8977   -2.7914   -1.8003 H         1 <0>         0.0757
     54 H11         1.0807   -3.9085    3.1823 H         1 <0>         0.0782
     55 H12         0.1523   -3.7376    1.7002 H         1 <0>         0.0812
     56 H13         2.2202   -0.8626   -0.4249 H         1 <0>         0.0731
     57 H14         3.5726   -3.4842   -0.2571 H         1 <0>         0.0511
     58 H15         3.1875   -3.5701    2.0864 H         1 <0>         0.0753
     59 H16         0.2435   -6.1003    2.3075 H         1 <0>         0.0427
     60 H17        -0.8003   -1.0721    5.3268 H         1 <0>         0.0450
     61 H18         0.5656   -1.7135    6.2354 H         1 <0>         0.0406
     62 H19         0.3859   -2.1083    4.5157 H         1 <0>         0.0274
     63 H20         0.5734   -0.1347    2.7689 H         1 <0>         0.0476
     64 H21        -0.5410    0.8267    3.7565 H         1 <0>         0.0170
     65 H22         1.0580    1.4667    3.3557 H         1 <0>         0.0477
     66 H23         6.4591   -0.6338    3.9619 H         1 <0>         0.0814
     67 H24         7.3065   -1.5285    5.2062 H         1 <0>         0.0685
     68 H25        -1.2041    2.2870    0.1483 H         1 <0>         0.1016
     69 H26         0.2054    1.9349   -0.8467 H         1 <0>         0.0660
     70 H27        -1.2820    1.2733   -2.7469 H         1 <0>         0.0512
     71 H28        -2.7004    1.6751   -1.7996 H         1 <0>         0.0454
     72 H29         3.1135    0.5249    4.4229 H         1 <0>         0.0575
     73 H30         2.9989   -0.7249    5.6470 H         1 <0>         0.0743
     74 H31        -0.2991    4.3638   -0.8567 H         1 <0>         0.0662
     75 H32        -1.9307    4.0486   -1.4645 H         1 <0>         0.0622
     76 H33        -2.2157   -1.1795   -3.0567 H         1 <0>         0.0321
     77 H34        -3.6169   -0.7550   -2.0576 H         1 <0>         0.0204
     78 H35         2.3493   -2.4014    3.8315 H         1 <0>         0.0749
     79 H36         6.5048   -2.9166    2.5725 H         1 <0>         0.0719
     80 H37         0.9798    0.6574    5.6989 H         1 <0>         0.0609
     81 H38        -2.1562   -0.1031   -0.1797 H         1 <0>         0.1063
     82 H39         0.7605    3.7281   -5.2267 H         1 <0>         0.4792
     83 H40         2.3692    4.0776   -4.6765 H         1 <0>         0.4819
     84 H41         1.5781    4.1795   -1.1377 H         1 <0>         0.4802
     85 H42         2.8470    4.3399   -2.3176 H         1 <0>         0.4826
     86 H43         0.1607   -0.8193   -1.9192 H         1 <0>         0.3101
     87 H44         4.7623   -1.0902    2.7952 H         1 <0>         0.3087
     88 H45        -1.0297    3.5025   -3.6069 H         1 <0>         0.4846
     89 H46        12.6039   -1.4180    1.5953 H         1 <0>         0.4194
     90 H47         2.7873   -5.4145    2.8873 H         1 <0>         0.4036
     91 H48        -1.7464   -2.8287   -1.7250 H         1 <0>         0.4114
     92 H49         7.8613   -3.5912    4.6591 H         1 <0>         0.3944
@<TRIPOS>BOND
     1    1    3 ar
     2    1    5 ar
     3    2    4 ar
     4    2    5 ar
     5    3    6 ar
     6    4    6 ar
     7    5   21 1
     8    6   40 1
     9    7   15 1
    10    7   34 am
    11    7   37 2
    12    8   27 1
    13    8   31 am
    14    8   38 2
    15    9   28 1
    16    9   35 am
    17    9   39 2
    18   10   32 1
    19   10   33 1
    20   10   36 1
    21   11   12 1
    22   11   16 1
    23   12   18 1
    24   13   15 1
    25   13   16 1
    26   14   17 1
    27   14   18 1
    28   15   31 1
    29   16   17 1
    30   17   31 1
    31   18   41 1
    32   19   29 1
    33   20   29 1
    34   21   28 1
    35   22   23 1
    36   22   25 1
    37   23   30 1
    38   24   27 1
    39   24   29 1
    40   25   36 1
    41   26   30 1
    42   26   42 1
    43   27   35 1
    44   28   43 1
    45   30   34 1
    46    1   44 1
    47    2   45 1
    48    3   46 1
    49    4   47 1
    50   11   48 1
    51   11   49 1
    52   12   50 1
    53   12   51 1
    54   13   52 1
    55   13   53 1
    56   14   54 1
    57   14   55 1
    58   15   56 1
    59   16   57 1
    60   17   58 1
    61   18   59 1
    62   19   60 1
    63   19   61 1
    64   19   62 1
    65   20   63 1
    66   20   64 1
    67   20   65 1
    68   21   66 1
    69   21   67 1
    70   22   68 1
    71   22   69 1
    72   23   70 1
    73   23   71 1
    74   24   72 1
    75   24   73 1
    76   25   74 1
    77   25   75 1
    78   26   76 1
    79   26   77 1
    80   27   78 1
    81   28   79 1
    82   29   80 1
    83   30   81 1
    84   32   82 1
    85   32   83 1
    86   33   84 1
    87   33   85 1
    88   34   86 1
    89   35   87 1
    90   36   88 1
    91   40   89 1
    92   41   90 1
    93   42   91 1
    94   43   92 1
@<TRIPOS>MOLECULE
1a2c_ligand_284
   92    94     0     0     0
SMALL
USER_CHARGES

mmff94s_NoEstat = 126.81
@<TRIPOS>ATOM
      1 C1          8.9590   -2.4273    1.5330 C.ar      1 <0>        -0.0708
      2 C2          8.2026   -4.7203    1.6185 C.ar      1 <0>        -0.0872
      3 C3         10.2351   -2.8617    1.1746 C.ar      1 <0>        -0.2241
      4 C4          9.4788   -5.1546    1.2601 C.ar      1 <0>        -0.1600
      5 C5          7.9599   -3.3625    1.7501 C.ar      1 <0>        -0.1356
      6 C6         10.4951   -4.2253    1.0381 C.ar      1 <0>         0.1290
      7 C7          0.1755   -1.0766    0.1327 C.2       1 <0>         0.6664
      8 C8          2.3785   -0.9757    2.2764 C.2       1 <0>         0.6651
      9 C9          4.9366   -2.7533    4.0331 C.2       1 <0>         0.6454
     10 C10        -0.9027    3.0370   -5.8579 C.cat     1 <0>         0.6349
     11 C11         2.4521   -5.3069   -0.2561 C.3       1 <0>        -0.0642
     12 C12         1.2413   -5.9691    0.3982 C.3       1 <0>        -0.0747
     13 C13         1.5734   -2.9393   -0.7647 C.3       1 <0>        -0.0873
     14 C14         1.0938   -4.1277    2.1072 C.3       1 <0>        -0.1371
     15 C15         1.5650   -1.6216    0.0133 C.3       1 <0>         0.0360
     16 C16         2.5597   -3.8106    0.0203 C.3       1 <0>        -0.0720
     17 C17         2.2934   -3.4012    1.4755 C.3       1 <0>         0.1201
     18 C18         1.1411   -5.6363    1.8853 C.3       1 <0>         0.1453
     19 C19         0.2658   -1.3152    5.2616 C.3       1 <0>        -0.0968
     20 C20         0.5109    0.5548    3.6177 C.3       1 <0>        -0.0986
     21 C21         6.5781   -2.8922    2.1374 C.3       1 <0>        -0.0191
     22 C22        -0.8155    2.0502   -2.2095 C.3       1 <0>        -0.1009
     23 C23        -1.7941    0.8762   -2.3301 C.3       1 <0>        -0.0942
     24 C24         2.5770   -0.3966    4.6867 C.3       1 <0>        -0.0988
     25 C25        -1.0015    3.0414   -3.3563 C.3       1 <0>         0.1966
     26 C26        -2.7214   -1.3050   -1.3187 C.3       1 <0>         0.1128
     27 C27         2.8496   -1.4560    3.6253 C.3       1 <0>         0.0786
     28 C28         6.4127   -2.7813    3.6567 C.3       1 <0>         0.0744
     29 C29         1.0824   -0.0766    4.8902 C.3       1 <0>        -0.0678
     30 C30        -1.7203   -0.1547   -1.1858 C.3       1 <0>         0.1065
     31 N1          2.0322   -1.9586    1.3590 N.am      1 <0>        -0.4315
     32 N2         -0.6764    2.3611   -7.0524 N.pl3     1 <0>        -0.8671
     33 N3         -1.2564    4.3814   -5.8961 N.pl3     1 <0>        -0.8581
     34 N4         -0.3878   -0.7030   -1.0725 N.am      1 <0>        -0.5687
     35 N5          4.2458   -1.7091    3.4221 N.am      1 <0>        -0.5746
     36 N6         -0.7789    2.3814   -4.6207 N.pl3     1 <0>        -0.7533
     37 O1         -0.3509   -1.0007    1.2367 O.2       1 <0>        -0.5843
     38 O2          2.3230    0.2335    2.0409 O.2       1 <0>        -0.6812
     39 O3          4.4369   -3.5674    4.8063 O.2       1 <0>        -0.5788
     40 O4         11.7399   -4.6491    0.6868 O.3       1 <0>        -0.4938
     41 O5          2.2611   -6.1715    2.5852 O.3       1 <0>        -0.6030
     42 O6         -2.4752   -2.0231   -2.5206 O.3       1 <0>        -0.5860
     43 O7          7.0074   -1.5695    4.0986 O.3       1 <0>        -0.6021
     44 H1          8.7661   -1.3631    1.6371 H         1 <0>         0.1412
     45 H2          7.4168   -5.4516    1.7891 H         1 <0>         0.1451
     46 H3         11.0225   -2.1330    1.0030 H         1 <0>         0.1336
     47 H4          9.6748   -6.2184    1.1544 H         1 <0>         0.1567
     48 H5          3.3605   -5.7937    0.1218 H         1 <0>         0.0649
     49 H6          2.4319   -5.4897   -1.3370 H         1 <0>         0.0476
     50 H7          0.3241   -5.6545   -0.1129 H         1 <0>         0.0641
     51 H8          1.3294   -7.0545    0.2691 H         1 <0>         0.0484
     52 H9          0.5754   -3.3919   -0.8000 H         1 <0>         0.0596
     53 H10         1.8977   -2.7914   -1.8003 H         1 <0>         0.0757
     54 H11         1.0807   -3.9085    3.1823 H         1 <0>         0.0782
     55 H12         0.1523   -3.7376    1.7002 H         1 <0>         0.0812
     56 H13         2.2202   -0.8626   -0.4249 H         1 <0>         0.0731
     57 H14         3.5726   -3.4842   -0.2571 H         1 <0>         0.0511
     58 H15         3.1875   -3.5701    2.0864 H         1 <0>         0.0753
     59 H16         0.2435   -6.1003    2.3075 H         1 <0>         0.0427
     60 H17        -0.8003   -1.0721    5.3268 H         1 <0>         0.0450
     61 H18         0.5656   -1.7135    6.2354 H         1 <0>         0.0406
     62 H19         0.3859   -2.1083    4.5157 H         1 <0>         0.0274
     63 H20         0.5734   -0.1347    2.7689 H         1 <0>         0.0476
     64 H21        -0.5410    0.8267    3.7565 H         1 <0>         0.0170
     65 H22         1.0580    1.4667    3.3557 H         1 <0>         0.0477
     66 H23         5.8332   -3.5872    1.7274 H         1 <0>         0.0814
     67 H24         6.3910   -1.9291    1.6460 H         1 <0>         0.0685
     68 H25        -0.9672    2.5721   -1.2575 H         1 <0>         0.1016
     69 H26         0.2183    1.6845   -2.2100 H         1 <0>         0.0660
     70 H27        -1.6130    0.3584   -3.2819 H         1 <0>         0.0512
     71 H28        -2.8171    1.2691   -2.3922 H         1 <0>         0.0454
     72 H29         3.1135    0.5249    4.4229 H         1 <0>         0.0575
     73 H30         2.9989   -0.7249    5.6470 H         1 <0>         0.0743
     74 H31        -0.2967    3.8737   -3.2572 H         1 <0>         0.0662
     75 H32        -2.0142    3.4573   -3.3438 H         1 <0>         0.0622
     76 H33        -3.7565   -0.9478   -1.3308 H         1 <0>         0.0321
     77 H34        -2.6144   -2.0048   -0.4820 H         1 <0>         0.0204
     78 H35         2.3493   -2.4014    3.8315 H         1 <0>         0.0749
     79 H36         6.9008   -3.6136    4.1775 H         1 <0>         0.0719
     80 H37         0.9798    0.6574    5.6989 H         1 <0>         0.0609
     81 H38        -1.9472    0.3883   -0.2591 H         1 <0>         0.1063
     82 H39        -0.4141    1.3793   -7.0731 H         1 <0>         0.4792
     83 H40        -0.7658    2.8372   -7.9471 H         1 <0>         0.4819
     84 H41        -1.4289    4.9057   -5.0418 H         1 <0>         0.4802
     85 H42        -1.3529    4.8755   -6.7800 H         1 <0>         0.4826
     86 H43         0.1607   -0.8193   -1.9192 H         1 <0>         0.3101
     87 H44         4.7623   -1.0902    2.7952 H         1 <0>         0.3087
     88 H45        -0.5155    1.3889   -4.6505 H         1 <0>         0.4846
     89 H46        12.4129   -4.0471    1.0425 H         1 <0>         0.4194
     90 H47         2.7873   -5.4145    2.8873 H         1 <0>         0.4036
     91 H48        -2.8906   -1.5183   -3.2383 H         1 <0>         0.4114
     92 H49         7.5790   -1.2578    3.3780 H         1 <0>         0.3944
@<TRIPOS>BOND
     1    1    3 ar
     2    1    5 ar
     3    2    4 ar
     4    2    5 ar
     5    3    6 ar
     6    4    6 ar
     7    5   21 1
     8    6   40 1
     9    7   15 1
    10    7   34 am
    11    7   37 2
    12    8   27 1
    13    8   31 am
    14    8   38 2
    15    9   28 1
    16    9   35 am
    17    9   39 2
    18   10   32 1
    19   10   33 1
    20   10   36 1
    21   11   12 1
    22   11   16 1
    23   12   18 1
    24   13   15 1
    25   13   16 1
    26   14   17 1
    27   14   18 1
    28   15   31 1
    29   16   17 1
    30   17   31 1
    31   18   41 1
    32   19   29 1
    33   20   29 1
    34   21   28 1
    35   22   23 1
    36   22   25 1
    37   23   30 1
    38   24   27 1
    39   24   29 1
    40   25   36 1
    41   26   30 1
    42   26   42 1
    43   27   35 1
    44   28   43 1
    45   30   34 1
    46    1   44 1
    47    2   45 1
    48    3   46 1
    49    4   47 1
    50   11   48 1
    51   11   49 1
    52   12   50 1
    53   12   51 1
    54   13   52 1
    55   13   53 1
    56   14   54 1
    57   14   55 1
    58   15   56 1
    59   16   57 1
    60   17   58 1
    61   18   59 1
    62   19   60 1
    63   19   61 1
    64   19   62 1
    65   20   63 1
    66   20   64 1
    67   20   65 1
    68   21   66 1
    69   21   67 1
    70   22   68 1
    71   22   69 1
    72   23   70 1
    73   23   71 1
    74   24   72 1
    75   24   73 1
    76   25   74 1
    77   25   75 1
    78   26   76 1
    79   26   77 1
    80   27   78 1
    81   28   79 1
    82   29   80 1
    83   30   81 1
    84   32   82 1
    85   32   83 1
    86   33   84 1
    87   33   85 1
    88   34   86 1
    89   35   87 1
    90   36   88 1
    91   40   89 1
    92   41   90 1
    93   42   91 1
    94   43   92 1
@<TRIPOS>MOLECULE
1a2c_ligand_285
   92    94     0     0     0
SMALL
USER_CHARGES

mmff94s_NoEstat = 126.84
@<TRIPOS>ATOM
      1 C1          9.3679   -4.2778    3.2747 C.ar      1 <0>        -0.0708
      2 C2          9.2039   -3.2019    5.4316 C.ar      1 <0>        -0.0872
      3 C3         10.7541   -4.1252    3.3040 C.ar      1 <0>        -0.2241
      4 C4         10.5900   -3.0492    5.4609 C.ar      1 <0>        -0.1600
      5 C5          8.6114   -3.8142    4.3389 C.ar      1 <0>        -0.1356
      6 C6         11.3652   -3.5109    4.3971 C.ar      1 <0>         0.1290
      7 C7          0.1755   -1.0766    0.1327 C.2       1 <0>         0.6664
      8 C8          2.3785   -0.9757    2.2764 C.2       1 <0>         0.6651
      9 C9          4.9366   -2.7533    4.0331 C.2       1 <0>         0.6454
     10 C10        -0.9027    3.0370   -5.8579 C.cat     1 <0>         0.6349
     11 C11         2.4521   -5.3069   -0.2561 C.3       1 <0>        -0.0642
     12 C12         1.2413   -5.9691    0.3982 C.3       1 <0>        -0.0747
     13 C13         1.5734   -2.9393   -0.7647 C.3       1 <0>        -0.0873
     14 C14         1.0938   -4.1277    2.1072 C.3       1 <0>        -0.1371
     15 C15         1.5650   -1.6216    0.0133 C.3       1 <0>         0.0360
     16 C16         2.5597   -3.8106    0.0203 C.3       1 <0>        -0.0720
     17 C17         2.2934   -3.4012    1.4755 C.3       1 <0>         0.1201
     18 C18         1.1411   -5.6363    1.8853 C.3       1 <0>         0.1453
     19 C19         0.2658   -1.3152    5.2616 C.3       1 <0>        -0.0968
     20 C20         0.5109    0.5548    3.6177 C.3       1 <0>        -0.0986
     21 C21         7.1108   -3.9801    4.3074 C.3       1 <0>        -0.0191
     22 C22        -0.8155    2.0502   -2.2095 C.3       1 <0>        -0.1009
     23 C23        -1.7941    0.8762   -2.3301 C.3       1 <0>        -0.0942
     24 C24         2.5770   -0.3966    4.6867 C.3       1 <0>        -0.0988
     25 C25        -1.0015    3.0414   -3.3563 C.3       1 <0>         0.1966
     26 C26        -2.7214   -1.3050   -1.3187 C.3       1 <0>         0.1128
     27 C27         2.8496   -1.4560    3.6253 C.3       1 <0>         0.0786
     28 C28         6.4127   -2.7813    3.6567 C.3       1 <0>         0.0744
     29 C29         1.0824   -0.0766    4.8902 C.3       1 <0>        -0.0678
     30 C30        -1.7203   -0.1547   -1.1858 C.3       1 <0>         0.1065
     31 N1          2.0322   -1.9586    1.3590 N.am      1 <0>        -0.4315
     32 N2         -0.6764    2.3611   -7.0524 N.pl3     1 <0>        -0.8671
     33 N3         -1.2564    4.3814   -5.8961 N.pl3     1 <0>        -0.8581
     34 N4         -0.3878   -0.7030   -1.0725 N.am      1 <0>        -0.5687
     35 N5          4.2458   -1.7091    3.4221 N.am      1 <0>        -0.5746
     36 N6         -0.7789    2.3814   -4.6207 N.pl3     1 <0>        -0.7533
     37 O1         -0.3509   -1.0007    1.2367 O.2       1 <0>        -0.5843
     38 O2          2.3230    0.2335    2.0409 O.2       1 <0>        -0.6812
     39 O3          4.4369   -3.5674    4.8063 O.2       1 <0>        -0.5788
     40 O4         12.7180   -3.3634    4.4265 O.3       1 <0>        -0.4938
     41 O5          2.2611   -6.1715    2.5852 O.3       1 <0>        -0.6030
     42 O6         -2.4752   -2.0231   -2.5206 O.3       1 <0>        -0.5860
     43 O7          6.5093   -2.9015    2.2447 O.3       1 <0>        -0.6021
     44 H1          8.9009   -4.7575    2.4188 H         1 <0>         0.1412
     45 H2          8.6078   -2.8393    6.2651 H         1 <0>         0.1451
     46 H3         11.3524   -4.4870    2.4725 H         1 <0>         0.1336
     47 H4         11.0604   -2.5706    6.3158 H         1 <0>         0.1567
     48 H5          3.3605   -5.7937    0.1218 H         1 <0>         0.0649
     49 H6          2.4319   -5.4897   -1.3370 H         1 <0>         0.0476
     50 H7          0.3241   -5.6545   -0.1129 H         1 <0>         0.0641
     51 H8          1.3294   -7.0545    0.2691 H         1 <0>         0.0484
     52 H9          0.5754   -3.3919   -0.8000 H         1 <0>         0.0596
     53 H10         1.8977   -2.7914   -1.8003 H         1 <0>         0.0757
     54 H11         1.0807   -3.9085    3.1823 H         1 <0>         0.0782
     55 H12         0.1523   -3.7376    1.7002 H         1 <0>         0.0812
     56 H13         2.2202   -0.8626   -0.4249 H         1 <0>         0.0731
     57 H14         3.5726   -3.4842   -0.2571 H         1 <0>         0.0511
     58 H15         3.1875   -3.5701    2.0864 H         1 <0>         0.0753
     59 H16         0.2435   -6.1003    2.3075 H         1 <0>         0.0427
     60 H17        -0.8003   -1.0721    5.3268 H         1 <0>         0.0450
     61 H18         0.5656   -1.7135    6.2354 H         1 <0>         0.0406
     62 H19         0.3859   -2.1083    4.5157 H         1 <0>         0.0274
     63 H20         0.5734   -0.1347    2.7689 H         1 <0>         0.0476
     64 H21        -0.5410    0.8267    3.7565 H         1 <0>         0.0170
     65 H22         1.0580    1.4667    3.3557 H         1 <0>         0.0477
     66 H23         6.7424   -4.1192    5.3327 H         1 <0>         0.0814
     67 H24         6.8777   -4.9118    3.7769 H         1 <0>         0.0685
     68 H25        -0.9672    2.5721   -1.2575 H         1 <0>         0.1016
     69 H26         0.2183    1.6845   -2.2100 H         1 <0>         0.0660
     70 H27        -1.6130    0.3584   -3.2819 H         1 <0>         0.0512
     71 H28        -2.8171    1.2691   -2.3922 H         1 <0>         0.0454
     72 H29         3.1135    0.5249    4.4229 H         1 <0>         0.0575
     73 H30         2.9989   -0.7249    5.6470 H         1 <0>         0.0743
     74 H31        -0.2967    3.8737   -3.2572 H         1 <0>         0.0662
     75 H32        -2.0142    3.4573   -3.3438 H         1 <0>         0.0622
     76 H33        -3.7565   -0.9478   -1.3308 H         1 <0>         0.0321
     77 H34        -2.6144   -2.0048   -0.4820 H         1 <0>         0.0204
     78 H35         2.3493   -2.4014    3.8315 H         1 <0>         0.0749
     79 H36         6.8776   -1.8337    3.9535 H         1 <0>         0.0719
     80 H37         0.9798    0.6574    5.6989 H         1 <0>         0.0609
     81 H38        -1.9472    0.3883   -0.2591 H         1 <0>         0.1063
     82 H39        -0.4141    1.3793   -7.0731 H         1 <0>         0.4792
     83 H40        -0.7658    2.8372   -7.9471 H         1 <0>         0.4819
     84 H41        -1.4289    4.9057   -5.0418 H         1 <0>         0.4802
     85 H42        -1.3529    4.8755   -6.7800 H         1 <0>         0.4826
     86 H43         0.1607   -0.8193   -1.9192 H         1 <0>         0.3101
     87 H44         4.7623   -1.0902    2.7952 H         1 <0>         0.3087
     88 H45        -0.5155    1.3889   -4.6505 H         1 <0>         0.4846
     89 H46        13.0621   -3.2372    3.5278 H         1 <0>         0.4194
     90 H47         2.7873   -5.4145    2.8873 H         1 <0>         0.4036
     91 H48        -2.8906   -1.5183   -3.2383 H         1 <0>         0.4114
     92 H49         7.2005   -3.5597    2.0653 H         1 <0>         0.3944
@<TRIPOS>BOND
     1    1    3 ar
     2    1    5 ar
     3    2    4 ar
     4    2    5 ar
     5    3    6 ar
     6    4    6 ar
     7    5   21 1
     8    6   40 1
     9    7   15 1
    10    7   34 am
    11    7   37 2
    12    8   27 1
    13    8   31 am
    14    8   38 2
    15    9   28 1
    16    9   35 am
    17    9   39 2
    18   10   32 1
    19   10   33 1
    20   10   36 1
    21   11   12 1
    22   11   16 1
    23   12   18 1
    24   13   15 1
    25   13   16 1
    26   14   17 1
    27   14   18 1
    28   15   31 1
    29   16   17 1
    30   17   31 1
    31   18   41 1
    32   19   29 1
    33   20   29 1
    34   21   28 1
    35   22   23 1
    36   22   25 1
    37   23   30 1
    38   24   27 1
    39   24   29 1
    40   25   36 1
    41   26   30 1
    42   26   42 1
    43   27   35 1
    44   28   43 1
    45   30   34 1
    46    1   44 1
    47    2   45 1
    48    3   46 1
    49    4   47 1
    50   11   48 1
    51   11   49 1
    52   12   50 1
    53   12   51 1
    54   13   52 1
    55   13   53 1
    56   14   54 1
    57   14   55 1
    58   15   56 1
    59   16   57 1
    60   17   58 1
    61   18   59 1
    62   19   60 1
    63   19   61 1
    64   19   62 1
    65   20   63 1
    66   20   64 1
    67   20   65 1
    68   21   66 1
    69   21   67 1
    70   22   68 1
    71   22   69 1
    72   23   70 1
    73   23   71 1
    74   24   72 1
    75   24   73 1
    76   25   74 1
    77   25   75 1
    78   26   76 1
    79   26   77 1
    80   27   78 1
    81   28   79 1
    82   29   80 1
    83   30   81 1
    84   32   82 1
    85   32   83 1
    86   33   84 1
    87   33   85 1
    88   34   86 1
    89   35   87 1
    90   36   88 1
    91   40   89 1
    92   41   90 1
    93   42   91 1
    94   43   92 1
@<TRIPOS>MOLECULE
1a2c_ligand_286
   92    94     0     0     0
SMALL
USER_CHARGES

mmff94s_NoEstat = 126.92
@<TRIPOS>ATOM
      1 C1          9.5962   -1.2772    3.3561 C.ar      1 <0>        -0.0708
      2 C2          8.2185   -1.0798    1.3813 C.ar      1 <0>        -0.0872
      3 C3         10.7341   -1.3612    2.5537 C.ar      1 <0>        -0.2241
      4 C4          9.3564   -1.1638    0.5789 C.ar      1 <0>        -0.1600
      5 C5          8.3537   -1.1375    2.7591 C.ar      1 <0>        -0.1356
      6 C6         10.6142   -1.3046    1.1652 C.ar      1 <0>         0.1290
      7 C7          0.1755   -1.0766    0.1327 C.2       1 <0>         0.6664
      8 C8          2.3785   -0.9757    2.2764 C.2       1 <0>         0.6651
      9 C9          5.0726   -2.2851    4.3841 C.2       1 <0>         0.6454
     10 C10         1.2694    4.7951   -0.9037 C.cat     1 <0>         0.6349
     11 C11         2.4521   -5.3069   -0.2561 C.3       1 <0>        -0.0642
     12 C12         1.2413   -5.9691    0.3982 C.3       1 <0>        -0.0747
     13 C13         1.5734   -2.9393   -0.7647 C.3       1 <0>        -0.0873
     14 C14         1.0938   -4.1277    2.1072 C.3       1 <0>        -0.1371
     15 C15         1.5650   -1.6216    0.0133 C.3       1 <0>         0.0360
     16 C16         2.5597   -3.8106    0.0203 C.3       1 <0>        -0.0720
     17 C17         2.2934   -3.4012    1.4755 C.3       1 <0>         0.1201
     18 C18         1.1411   -5.6363    1.8853 C.3       1 <0>         0.1453
     19 C19         0.2658   -1.3152    5.2616 C.3       1 <0>        -0.0968
     20 C20         0.5109    0.5548    3.6177 C.3       1 <0>        -0.0986
     21 C21         7.1218   -1.0458    3.6277 C.3       1 <0>        -0.0191
     22 C22        -0.8392    2.2664   -0.8852 C.3       1 <0>        -0.1009
     23 C23        -1.6754    1.2905   -1.7214 C.3       1 <0>        -0.0942
     24 C24         2.5770   -0.3966    4.6867 C.3       1 <0>        -0.0988
     25 C25        -0.9003    3.6784   -1.4634 C.3       1 <0>         0.1966
     26 C26        -2.5783   -1.1036   -2.0263 C.3       1 <0>         0.1128
     27 C27         2.8496   -1.4560    3.6253 C.3       1 <0>         0.0786
     28 C28         6.5149   -2.4235    3.9131 C.3       1 <0>         0.0744
     29 C29         1.0824   -0.0766    4.8902 C.3       1 <0>        -0.0678
     30 C30        -1.7203   -0.1547   -1.1858 C.3       1 <0>         0.1065
     31 N1          2.0322   -1.9586    1.3590 N.am      1 <0>        -0.4315
     32 N2          2.0031    5.6699   -0.1091 N.pl3     1 <0>        -0.8671
     33 N3          1.9052    4.1325   -1.9480 N.pl3     1 <0>        -0.8581
     34 N4         -0.3878   -0.7030   -1.0725 N.am      1 <0>        -0.5687
     35 N5          4.2458   -1.7091    3.4221 N.am      1 <0>        -0.5746
     36 N6         -0.0981    4.5744   -0.6649 N.pl3     1 <0>        -0.7533
     37 O1         -0.3509   -1.0007    1.2367 O.2       1 <0>        -0.5843
     38 O2          2.3230    0.2335    2.0409 O.2       1 <0>        -0.6812
     39 O3          4.7067   -2.6383    5.5030 O.2       1 <0>        -0.5788
     40 O4         11.7248   -1.3850    0.3823 O.3       1 <0>        -0.4938
     41 O5          2.2611   -6.1715    2.5852 O.3       1 <0>        -0.6030
     42 O6         -2.5724   -2.4015   -1.4465 O.3       1 <0>        -0.5860
     43 O7          7.2613   -3.0520    4.9452 O.3       1 <0>        -0.6021
     44 H1          9.6996   -1.3224    4.4368 H         1 <0>         0.1412
     45 H2          7.2424   -0.9699    0.9158 H         1 <0>         0.1451
     46 H3         11.7111   -1.4706    3.0163 H         1 <0>         0.1336
     47 H4          9.2566   -1.1182   -0.5023 H         1 <0>         0.1567
     48 H5          3.3605   -5.7937    0.1218 H         1 <0>         0.0649
     49 H6          2.4319   -5.4897   -1.3370 H         1 <0>         0.0476
     50 H7          0.3241   -5.6545   -0.1129 H         1 <0>         0.0641
     51 H8          1.3294   -7.0545    0.2691 H         1 <0>         0.0484
     52 H9          0.5754   -3.3919   -0.8000 H         1 <0>         0.0596
     53 H10         1.8977   -2.7914   -1.8003 H         1 <0>         0.0757
     54 H11         1.0807   -3.9085    3.1823 H         1 <0>         0.0782
     55 H12         0.1523   -3.7376    1.7002 H         1 <0>         0.0812
     56 H13         2.2202   -0.8626   -0.4249 H         1 <0>         0.0731
     57 H14         3.5726   -3.4842   -0.2571 H         1 <0>         0.0511
     58 H15         3.1875   -3.5701    2.0864 H         1 <0>         0.0753
     59 H16         0.2435   -6.1003    2.3075 H         1 <0>         0.0427
     60 H17        -0.8003   -1.0721    5.3268 H         1 <0>         0.0450
     61 H18         0.5656   -1.7135    6.2354 H         1 <0>         0.0406
     62 H19         0.3859   -2.1083    4.5157 H         1 <0>         0.0274
     63 H20         0.5734   -0.1347    2.7689 H         1 <0>         0.0476
     64 H21        -0.5410    0.8267    3.7565 H         1 <0>         0.0170
     65 H22         1.0580    1.4667    3.3557 H         1 <0>         0.0477
     66 H23         6.3806   -0.4028    3.1345 H         1 <0>         0.0814
     67 H24         7.3930   -0.5306    4.5578 H         1 <0>         0.0685
     68 H25        -1.2041    2.2870    0.1483 H         1 <0>         0.1016
     69 H26         0.2054    1.9349   -0.8467 H         1 <0>         0.0660
     70 H27        -1.2820    1.2733   -2.7469 H         1 <0>         0.0512
     71 H28        -2.7004    1.6751   -1.7996 H         1 <0>         0.0454
     72 H29         3.1135    0.5249    4.4229 H         1 <0>         0.0575
     73 H30         2.9989   -0.7249    5.6470 H         1 <0>         0.0743
     74 H31        -1.9343    4.0389   -1.4775 H         1 <0>         0.0662
     75 H32        -0.5286    3.6880   -2.4933 H         1 <0>         0.0622
     76 H33        -2.2157   -1.1795   -3.0567 H         1 <0>         0.0321
     77 H34        -3.6169   -0.7550   -2.0576 H         1 <0>         0.0204
     78 H35         2.3493   -2.4014    3.8315 H         1 <0>         0.0749
     79 H36         6.5434   -3.0684    3.0268 H         1 <0>         0.0719
     80 H37         0.9798    0.6574    5.6989 H         1 <0>         0.0609
     81 H38        -2.1562   -0.1031   -0.1797 H         1 <0>         0.1063
     82 H39         1.5804    6.1773    0.6636 H         1 <0>         0.4792
     83 H40         2.9927    5.8291   -0.2835 H         1 <0>         0.4819
     84 H41         1.3988    3.4863   -2.5484 H         1 <0>         0.4802
     85 H42         2.8941    4.2761   -2.1383 H         1 <0>         0.4826
     86 H43         0.1607   -0.8193   -1.9192 H         1 <0>         0.3101
     87 H44         4.6569   -1.4532    2.5231 H         1 <0>         0.3087
     88 H45        -0.5170    5.0894    0.1190 H         1 <0>         0.4846
     89 H46        12.3916   -1.9518    0.8018 H         1 <0>         0.4194
     90 H47         2.7873   -5.4145    2.8873 H         1 <0>         0.4036
     91 H48        -1.7464   -2.8287   -1.7250 H         1 <0>         0.4114
     92 H49         8.0995   -2.5674    5.0209 H         1 <0>         0.3944
@<TRIPOS>BOND
     1    1    3 ar
     2    1    5 ar
     3    2    4 ar
     4    2    5 ar
     5    3    6 ar
     6    4    6 ar
     7    5   21 1
     8    6   40 1
     9    7   15 1
    10    7   34 am
    11    7   37 2
    12    8   27 1
    13    8   31 am
    14    8   38 2
    15    9   28 1
    16    9   35 am
    17    9   39 2
    18   10   32 1
    19   10   33 1
    20   10   36 1
    21   11   12 1
    22   11   16 1
    23   12   18 1
    24   13   15 1
    25   13   16 1
    26   14   17 1
    27   14   18 1
    28   15   31 1
    29   16   17 1
    30   17   31 1
    31   18   41 1
    32   19   29 1
    33   20   29 1
    34   21   28 1
    35   22   23 1
    36   22   25 1
    37   23   30 1
    38   24   27 1
    39   24   29 1
    40   25   36 1
    41   26   30 1
    42   26   42 1
    43   27   35 1
    44   28   43 1
    45   30   34 1
    46    1   44 1
    47    2   45 1
    48    3   46 1
    49    4   47 1
    50   11   48 1
    51   11   49 1
    52   12   50 1
    53   12   51 1
    54   13   52 1
    55   13   53 1
    56   14   54 1
    57   14   55 1
    58   15   56 1
    59   16   57 1
    60   17   58 1
    61   18   59 1
    62   19   60 1
    63   19   61 1
    64   19   62 1
    65   20   63 1
    66   20   64 1
    67   20   65 1
    68   21   66 1
    69   21   67 1
    70   22   68 1
    71   22   69 1
    72   23   70 1
    73   23   71 1
    74   24   72 1
    75   24   73 1
    76   25   74 1
    77   25   75 1
    78   26   76 1
    79   26   77 1
    80   27   78 1
    81   28   79 1
    82   29   80 1
    83   30   81 1
    84   32   82 1
    85   32   83 1
    86   33   84 1
    87   33   85 1
    88   34   86 1
    89   35   87 1
    90   36   88 1
    91   40   89 1
    92   41   90 1
    93   42   91 1
    94   43   92 1
@<TRIPOS>MOLECULE
1a2c_ligand_287
   92    94     0     0     0
SMALL
USER_CHARGES

mmff94s_NoEstat = 126.95
@<TRIPOS>ATOM
      1 C1          8.7067   -1.6776    5.8103 C.ar      1 <0>        -0.0708
      2 C2          6.6740   -2.3180    6.9483 C.ar      1 <0>        -0.0872
      3 C3          8.9933   -0.7721    6.8318 C.ar      1 <0>        -0.2241
      4 C4          6.9606   -1.4124    7.9698 C.ar      1 <0>        -0.1600
      5 C5          7.5510   -2.4385    5.8822 C.ar      1 <0>        -0.1356
      6 C6          8.1203   -0.6394    7.9115 C.ar      1 <0>         0.1290
      7 C7          0.1755   -1.0766    0.1327 C.2       1 <0>         0.6664
      8 C8          2.3785   -0.9757    2.2764 C.2       1 <0>         0.6651
      9 C9          4.9366   -2.7533    4.0331 C.2       1 <0>         0.6454
     10 C10         0.0177    5.1861   -4.1496 C.cat     1 <0>         0.6349
     11 C11         2.4521   -5.3069   -0.2561 C.3       1 <0>        -0.0642
     12 C12         1.2413   -5.9691    0.3982 C.3       1 <0>        -0.0747
     13 C13         1.5734   -2.9393   -0.7647 C.3       1 <0>        -0.0873
     14 C14         1.0938   -4.1277    2.1072 C.3       1 <0>        -0.1371
     15 C15         1.5650   -1.6216    0.0133 C.3       1 <0>         0.0360
     16 C16         2.5597   -3.8106    0.0203 C.3       1 <0>        -0.0720
     17 C17         2.2934   -3.4012    1.4755 C.3       1 <0>         0.1201
     18 C18         1.1411   -5.6363    1.8853 C.3       1 <0>         0.1453
     19 C19         0.2658   -1.3152    5.2616 C.3       1 <0>        -0.0968
     20 C20         0.5109    0.5548    3.6177 C.3       1 <0>        -0.0986
     21 C21         7.2411   -3.4193    4.7767 C.3       1 <0>        -0.0191
     22 C22        -0.8155    2.0502   -2.2095 C.3       1 <0>        -0.1009
     23 C23        -1.7941    0.8762   -2.3301 C.3       1 <0>        -0.0942
     24 C24         2.5770   -0.3966    4.6867 C.3       1 <0>        -0.0988
     25 C25        -1.0015    3.0414   -3.3563 C.3       1 <0>         0.1966
     26 C26        -2.7214   -1.3050   -1.3187 C.3       1 <0>         0.1128
     27 C27         2.8496   -1.4560    3.6253 C.3       1 <0>         0.0786
     28 C28         6.4127   -2.7813    3.6567 C.3       1 <0>         0.0744
     29 C29         1.0824   -0.0766    4.8902 C.3       1 <0>        -0.0678
     30 C30        -1.7203   -0.1547   -1.1858 C.3       1 <0>         0.1065
     31 N1          2.0322   -1.9586    1.3590 N.am      1 <0>        -0.4315
     32 N2          0.9368    6.2166   -3.9817 N.pl3     1 <0>        -0.8671
     33 N3         -0.8308    5.2073   -5.2513 N.pl3     1 <0>        -0.8581
     34 N4         -0.3878   -0.7030   -1.0725 N.am      1 <0>        -0.5687
     35 N5          4.2458   -1.7091    3.4221 N.am      1 <0>        -0.5746
     36 N6         -0.0630    4.1305   -3.2250 N.pl3     1 <0>        -0.7533
     37 O1         -0.3509   -1.0007    1.2367 O.2       1 <0>        -0.5843
     38 O2          2.3230    0.2335    2.0409 O.2       1 <0>        -0.6812
     39 O3          4.4369   -3.5674    4.8063 O.2       1 <0>        -0.5788
     40 O4          8.4008    0.2431    8.9091 O.3       1 <0>        -0.4938
     41 O5          2.2611   -6.1715    2.5852 O.3       1 <0>        -0.6030
     42 O6         -2.4752   -2.0231   -2.5206 O.3       1 <0>        -0.5860
     43 O7          6.5559   -3.5586    2.4765 O.3       1 <0>        -0.6021
     44 H1          9.3928   -1.7738    4.9731 H         1 <0>         0.1412
     45 H2          5.7683   -2.9164    7.0022 H         1 <0>         0.1451
     46 H3          9.8982   -0.1729    6.7807 H         1 <0>         0.1336
     47 H4          6.2770   -1.3143    8.8089 H         1 <0>         0.1567
     48 H5          3.3605   -5.7937    0.1218 H         1 <0>         0.0649
     49 H6          2.4319   -5.4897   -1.3370 H         1 <0>         0.0476
     50 H7          0.3241   -5.6545   -0.1129 H         1 <0>         0.0641
     51 H8          1.3294   -7.0545    0.2691 H         1 <0>         0.0484
     52 H9          0.5754   -3.3919   -0.8000 H         1 <0>         0.0596
     53 H10         1.8977   -2.7914   -1.8003 H         1 <0>         0.0757
     54 H11         1.0807   -3.9085    3.1823 H         1 <0>         0.0782
     55 H12         0.1523   -3.7376    1.7002 H         1 <0>         0.0812
     56 H13         2.2202   -0.8626   -0.4249 H         1 <0>         0.0731
     57 H14         3.5726   -3.4842   -0.2571 H         1 <0>         0.0511
     58 H15         3.1875   -3.5701    2.0864 H         1 <0>         0.0753
     59 H16         0.2435   -6.1003    2.3075 H         1 <0>         0.0427
     60 H17        -0.8003   -1.0721    5.3268 H         1 <0>         0.0450
     61 H18         0.5656   -1.7135    6.2354 H         1 <0>         0.0406
     62 H19         0.3859   -2.1083    4.5157 H         1 <0>         0.0274
     63 H20         0.5734   -0.1347    2.7689 H         1 <0>         0.0476
     64 H21        -0.5410    0.8267    3.7565 H         1 <0>         0.0170
     65 H22         1.0580    1.4667    3.3557 H         1 <0>         0.0477
     66 H23         6.7044   -4.2796    5.1986 H         1 <0>         0.0814
     67 H24         8.1889   -3.8173    4.3928 H         1 <0>         0.0685
     68 H25        -0.9672    2.5721   -1.2575 H         1 <0>         0.1016
     69 H26         0.2183    1.6845   -2.2100 H         1 <0>         0.0660
     70 H27        -1.6130    0.3584   -3.2819 H         1 <0>         0.0512
     71 H28        -2.8171    1.2691   -2.3922 H         1 <0>         0.0454
     72 H29         3.1135    0.5249    4.4229 H         1 <0>         0.0575
     73 H30         2.9989   -0.7249    5.6470 H         1 <0>         0.0743
     74 H31        -2.0203    3.4431   -3.3499 H         1 <0>         0.0662
     75 H32        -0.8427    2.5473   -4.3203 H         1 <0>         0.0622
     76 H33        -3.7565   -0.9478   -1.3308 H         1 <0>         0.0321
     77 H34        -2.6144   -2.0048   -0.4820 H         1 <0>         0.0204
     78 H35         2.3493   -2.4014    3.8315 H         1 <0>         0.0749
     79 H36         6.7476   -1.7603    3.4385 H         1 <0>         0.0719
     80 H37         0.9798    0.6574    5.6989 H         1 <0>         0.0609
     81 H38        -1.9472    0.3883   -0.2591 H         1 <0>         0.1063
     82 H39         1.5752    6.2439   -3.1911 H         1 <0>         0.4792
     83 H40         0.9937    6.9803   -4.6514 H         1 <0>         0.4819
     84 H41        -1.5145    4.4701   -5.4045 H         1 <0>         0.4802
     85 H42        -0.7890    5.9606   -5.9336 H         1 <0>         0.4826
     86 H43         0.1607   -0.8193   -1.9192 H         1 <0>         0.3101
     87 H44         4.7623   -1.0902    2.7952 H         1 <0>         0.3087
     88 H45         0.5869    4.1646   -2.4302 H         1 <0>         0.4846
     89 H46         8.8743    1.0123    8.5543 H         1 <0>         0.4194
     90 H47         2.7873   -5.4145    2.8873 H         1 <0>         0.4036
     91 H48        -2.8906   -1.5183   -3.2383 H         1 <0>         0.4114
     92 H49         7.3284   -4.1319    2.6096 H         1 <0>         0.3944
@<TRIPOS>BOND
     1    1    3 ar
     2    1    5 ar
     3    2    4 ar
     4    2    5 ar
     5    3    6 ar
     6    4    6 ar
     7    5   21 1
     8    6   40 1
     9    7   15 1
    10    7   34 am
    11    7   37 2
    12    8   27 1
    13    8   31 am
    14    8   38 2
    15    9   28 1
    16    9   35 am
    17    9   39 2
    18   10   32 1
    19   10   33 1
    20   10   36 1
    21   11   12 1
    22   11   16 1
    23   12   18 1
    24   13   15 1
    25   13   16 1
    26   14   17 1
    27   14   18 1
    28   15   31 1
    29   16   17 1
    30   17   31 1
    31   18   41 1
    32   19   29 1
    33   20   29 1
    34   21   28 1
    35   22   23 1
    36   22   25 1
    37   23   30 1
    38   24   27 1
    39   24   29 1
    40   25   36 1
    41   26   30 1
    42   26   42 1
    43   27   35 1
    44   28   43 1
    45   30   34 1
    46    1   44 1
    47    2   45 1
    48    3   46 1
    49    4   47 1
    50   11   48 1
    51   11   49 1
    52   12   50 1
    53   12   51 1
    54   13   52 1
    55   13   53 1
    56   14   54 1
    57   14   55 1
    58   15   56 1
    59   16   57 1
    60   17   58 1
    61   18   59 1
    62   19   60 1
    63   19   61 1
    64   19   62 1
    65   20   63 1
    66   20   64 1
    67   20   65 1
    68   21   66 1
    69   21   67 1
    70   22   68 1
    71   22   69 1
    72   23   70 1
    73   23   71 1
    74   24   72 1
    75   24   73 1
    76   25   74 1
    77   25   75 1
    78   26   76 1
    79   26   77 1
    80   27   78 1
    81   28   79 1
    82   29   80 1
    83   30   81 1
    84   32   82 1
    85   32   83 1
    86   33   84 1
    87   33   85 1
    88   34   86 1
    89   35   87 1
    90   36   88 1
    91   40   89 1
    92   41   90 1
    93   42   91 1
    94   43   92 1
@<TRIPOS>MOLECULE
1a2c_ligand_288
   92    94     0     0     0
SMALL
USER_CHARGES

mmff94s_NoEstat = 126.96
@<TRIPOS>ATOM
      1 C1          7.9845    0.0816    2.2749 C.ar      1 <0>        -0.0708
      2 C2          6.1303    0.8743    3.6055 C.ar      1 <0>        -0.0872
      3 C3          7.8082    1.1484    1.3937 C.ar      1 <0>        -0.2241
      4 C4          5.9540    1.9410    2.7243 C.ar      1 <0>        -0.1600
      5 C5          7.1433   -0.0412    3.3690 C.ar      1 <0>        -0.1356
      6 C6          6.7929    2.0781    1.6184 C.ar      1 <0>         0.1290
      7 C7          0.1755   -1.0766    0.1327 C.2       1 <0>         0.6664
      8 C8          2.3785   -0.9757    2.2764 C.2       1 <0>         0.6651
      9 C9          5.0726   -2.2851    4.3841 C.2       1 <0>         0.6454
     10 C10         0.4790    2.3309   -5.2461 C.cat     1 <0>         0.6349
     11 C11         2.4521   -5.3069   -0.2561 C.3       1 <0>        -0.0642
     12 C12         1.2413   -5.9691    0.3982 C.3       1 <0>        -0.0747
     13 C13         1.5734   -2.9393   -0.7647 C.3       1 <0>        -0.0873
     14 C14         1.0938   -4.1277    2.1072 C.3       1 <0>        -0.1371
     15 C15         1.5650   -1.6216    0.0133 C.3       1 <0>         0.0360
     16 C16         2.5597   -3.8106    0.0203 C.3       1 <0>        -0.0720
     17 C17         2.2934   -3.4012    1.4755 C.3       1 <0>         0.1201
     18 C18         1.1411   -5.6363    1.8853 C.3       1 <0>         0.1453
     19 C19         0.2658   -1.3152    5.2616 C.3       1 <0>        -0.0968
     20 C20         0.5109    0.5548    3.6177 C.3       1 <0>        -0.0986
     21 C21         7.3346   -1.1957    4.3233 C.3       1 <0>        -0.0191
     22 C22        -0.8155    2.0502   -2.2095 C.3       1 <0>        -0.1009
     23 C23        -1.7941    0.8762   -2.3301 C.3       1 <0>        -0.0942
     24 C24         2.5770   -0.3966    4.6867 C.3       1 <0>        -0.0988
     25 C25        -1.0015    3.0414   -3.3563 C.3       1 <0>         0.1966
     26 C26        -2.7214   -1.3050   -1.3187 C.3       1 <0>         0.1128
     27 C27         2.8496   -1.4560    3.6253 C.3       1 <0>         0.0786
     28 C28         6.5149   -2.4235    3.9131 C.3       1 <0>         0.0744
     29 C29         1.0824   -0.0766    4.8902 C.3       1 <0>        -0.0678
     30 C30        -1.7203   -0.1547   -1.1858 C.3       1 <0>         0.1065
     31 N1          2.0322   -1.9586    1.3590 N.am      1 <0>        -0.4315
     32 N2          0.6475    1.6813   -6.4645 N.pl3     1 <0>        -0.8671
     33 N3          1.5760    2.9373   -4.6437 N.pl3     1 <0>        -0.8581
     34 N4         -0.3878   -0.7030   -1.0725 N.am      1 <0>        -0.5687
     35 N5          4.2458   -1.7091    3.4221 N.am      1 <0>        -0.5746
     36 N6         -0.7789    2.3814   -4.6207 N.pl3     1 <0>        -0.7533
     37 O1         -0.3509   -1.0007    1.2367 O.2       1 <0>        -0.5843
     38 O2          2.3230    0.2335    2.0409 O.2       1 <0>        -0.6812
     39 O3          4.7067   -2.6383    5.5030 O.2       1 <0>        -0.5788
     40 O4          6.6219    3.1200    0.7594 O.3       1 <0>        -0.4938
     41 O5          2.2611   -6.1715    2.5852 O.3       1 <0>        -0.6030
     42 O6         -2.4752   -2.0231   -2.5206 O.3       1 <0>        -0.5860
     43 O7          7.0737   -3.5771    4.5249 O.3       1 <0>        -0.6021
     44 H1          8.7780   -0.6378    2.0915 H         1 <0>         0.1412
     45 H2          5.4721    0.7756    4.4648 H         1 <0>         0.1451
     46 H3          8.4649    1.2497    0.5342 H         1 <0>         0.1336
     47 H4          5.1617    2.6627    2.9053 H         1 <0>         0.1567
     48 H5          3.3605   -5.7937    0.1218 H         1 <0>         0.0649
     49 H6          2.4319   -5.4897   -1.3370 H         1 <0>         0.0476
     50 H7          0.3241   -5.6545   -0.1129 H         1 <0>         0.0641
     51 H8          1.3294   -7.0545    0.2691 H         1 <0>         0.0484
     52 H9          0.5754   -3.3919   -0.8000 H         1 <0>         0.0596
     53 H10         1.8977   -2.7914   -1.8003 H         1 <0>         0.0757
     54 H11         1.0807   -3.9085    3.1823 H         1 <0>         0.0782
     55 H12         0.1523   -3.7376    1.7002 H         1 <0>         0.0812
     56 H13         2.2202   -0.8626   -0.4249 H         1 <0>         0.0731
     57 H14         3.5726   -3.4842   -0.2571 H         1 <0>         0.0511
     58 H15         3.1875   -3.5701    2.0864 H         1 <0>         0.0753
     59 H16         0.2435   -6.1003    2.3075 H         1 <0>         0.0427
     60 H17        -0.8003   -1.0721    5.3268 H         1 <0>         0.0450
     61 H18         0.5656   -1.7135    6.2354 H         1 <0>         0.0406
     62 H19         0.3859   -2.1083    4.5157 H         1 <0>         0.0274
     63 H20         0.5734   -0.1347    2.7689 H         1 <0>         0.0476
     64 H21        -0.5410    0.8267    3.7565 H         1 <0>         0.0170
     65 H22         1.0580    1.4667    3.3557 H         1 <0>         0.0477
     66 H23         7.0532   -0.8763    5.3357 H         1 <0>         0.0814
     67 H24         8.4054   -1.4304    4.3706 H         1 <0>         0.0685
     68 H25        -0.9672    2.5721   -1.2575 H         1 <0>         0.1016
     69 H26         0.2183    1.6845   -2.2100 H         1 <0>         0.0660
     70 H27        -1.6130    0.3584   -3.2819 H         1 <0>         0.0512
     71 H28        -2.8171    1.2691   -2.3922 H         1 <0>         0.0454
     72 H29         3.1135    0.5249    4.4229 H         1 <0>         0.0575
     73 H30         2.9989   -0.7249    5.6470 H         1 <0>         0.0743
     74 H31        -0.2967    3.8737   -3.2572 H         1 <0>         0.0662
     75 H32        -2.0142    3.4573   -3.3438 H         1 <0>         0.0622
     76 H33        -3.7565   -0.9478   -1.3308 H         1 <0>         0.0321
     77 H34        -2.6144   -2.0048   -0.4820 H         1 <0>         0.0204
     78 H35         2.3493   -2.4014    3.8315 H         1 <0>         0.0749
     79 H36         6.5257   -2.5713    2.8267 H         1 <0>         0.0719
     80 H37         0.9798    0.6574    5.6989 H         1 <0>         0.0609
     81 H38        -1.9472    0.3883   -0.2591 H         1 <0>         0.1063
     82 H39        -0.1248    1.2227   -6.9404 H         1 <0>         0.4792
     83 H40         1.5586    1.6451   -6.9156 H         1 <0>         0.4819
     84 H41         1.4882    3.4205   -3.7530 H         1 <0>         0.4802
     85 H42         2.4951    2.9142   -5.0788 H         1 <0>         0.4826
     86 H43         0.1607   -0.8193   -1.9192 H         1 <0>         0.3101
     87 H44         4.6569   -1.4532    2.5231 H         1 <0>         0.3087
     88 H45        -1.5543    1.9173   -5.1092 H         1 <0>         0.4846
     89 H46         6.8643    2.8557   -0.1424 H         1 <0>         0.4194
     90 H47         2.7873   -5.4145    2.8873 H         1 <0>         0.4036
     91 H48        -2.8906   -1.5183   -3.2383 H         1 <0>         0.4114
     92 H49         7.9632   -3.3317    4.8278 H         1 <0>         0.3944
@<TRIPOS>BOND
     1    1    3 ar
     2    1    5 ar
     3    2    4 ar
     4    2    5 ar
     5    3    6 ar
     6    4    6 ar
     7    5   21 1
     8    6   40 1
     9    7   15 1
    10    7   34 am
    11    7   37 2
    12    8   27 1
    13    8   31 am
    14    8   38 2
    15    9   28 1
    16    9   35 am
    17    9   39 2
    18   10   32 1
    19   10   33 1
    20   10   36 1
    21   11   12 1
    22   11   16 1
    23   12   18 1
    24   13   15 1
    25   13   16 1
    26   14   17 1
    27   14   18 1
    28   15   31 1
    29   16   17 1
    30   17   31 1
    31   18   41 1
    32   19   29 1
    33   20   29 1
    34   21   28 1
    35   22   23 1
    36   22   25 1
    37   23   30 1
    38   24   27 1
    39   24   29 1
    40   25   36 1
    41   26   30 1
    42   26   42 1
    43   27   35 1
    44   28   43 1
    45   30   34 1
    46    1   44 1
    47    2   45 1
    48    3   46 1
    49    4   47 1
    50   11   48 1
    51   11   49 1
    52   12   50 1
    53   12   51 1
    54   13   52 1
    55   13   53 1
    56   14   54 1
    57   14   55 1
    58   15   56 1
    59   16   57 1
    60   17   58 1
    61   18   59 1
    62   19   60 1
    63   19   61 1
    64   19   62 1
    65   20   63 1
    66   20   64 1
    67   20   65 1
    68   21   66 1
    69   21   67 1
    70   22   68 1
    71   22   69 1
    72   23   70 1
    73   23   71 1
    74   24   72 1
    75   24   73 1
    76   25   74 1
    77   25   75 1
    78   26   76 1
    79   26   77 1
    80   27   78 1
    81   28   79 1
    82   29   80 1
    83   30   81 1
    84   32   82 1
    85   32   83 1
    86   33   84 1
    87   33   85 1
    88   34   86 1
    89   35   87 1
    90   36   88 1
    91   40   89 1
    92   41   90 1
    93   42   91 1
    94   43   92 1
@<TRIPOS>MOLECULE
1a2c_ligand_289
   92    94     0     0     0
SMALL
USER_CHARGES

mmff94s_NoEstat = 127.15
@<TRIPOS>ATOM
      1 C1         -9.0710   -3.1012    0.0189 C.ar      1 <0>        -0.0708
      2 C2         -7.9646   -4.4965    1.6517 C.ar      1 <0>        -0.0872
      3 C3        -10.1182   -4.0195   -0.0562 C.ar      1 <0>        -0.2241
      4 C4         -9.0118   -5.4148    1.5766 C.ar      1 <0>        -0.1600
      5 C5         -8.0083   -3.3520    0.8718 C.ar      1 <0>        -0.1356
      6 C6        -10.0887   -5.1764    0.7226 C.ar      1 <0>         0.1290
      7 C7         -0.0512   -1.0561    0.2993 C.2       1 <0>         0.6664
      8 C8         -1.8469   -3.0457    2.1630 C.2       1 <0>         0.6651
      9 C9         -4.4743   -1.9575    0.3333 C.2       1 <0>         0.6454
     10 C10         5.4258   -2.2177   -1.5390 C.cat     1 <0>         0.6349
     11 C11         2.5186   -3.1911    0.6823 C.3       1 <0>        -0.0642
     12 C12         2.4580   -4.6414    0.2376 C.3       1 <0>        -0.0747
     13 C13         1.4874   -1.4827    2.2418 C.3       1 <0>        -0.0873
     14 C14         0.4946   -5.0934    1.7133 C.3       1 <0>        -0.1371
     15 C15         0.0412   -1.4176    1.7503 C.3       1 <0>         0.0360
     16 C16         1.8865   -2.9529    2.0632 C.3       1 <0>        -0.0720
     17 C17         0.5665   -3.7001    2.3454 C.3       1 <0>         0.1201
     18 C18         1.0248   -5.1525    0.2868 C.3       1 <0>         0.1453
     19 C19        -5.3726   -0.5418    3.1302 C.3       1 <0>        -0.0968
     20 C20        -3.4397    1.0389    2.9738 C.3       1 <0>        -0.0986
     21 C21        -6.8749   -2.3574    0.9537 C.3       1 <0>        -0.0191
     22 C22         2.8091   -0.2380   -1.8118 C.3       1 <0>        -0.1009
     23 C23         1.3524   -0.0970   -2.2688 C.3       1 <0>        -0.0942
     24 C24        -2.9973   -1.3585    3.5851 C.3       1 <0>        -0.0988
     25 C25         3.6273   -1.0396   -2.8217 C.3       1 <0>         0.1966
     26 C26        -0.9878    0.8875   -1.8280 C.3       1 <0>         0.1128
     27 C27        -2.7865   -1.8644    2.1628 C.3       1 <0>         0.0786
     28 C28        -5.7663   -2.6636   -0.0588 C.3       1 <0>         0.0744
     29 C29        -3.9969   -0.1898    3.6979 C.3       1 <0>        -0.0678
     30 C30         0.4555    0.7445   -1.3388 C.3       1 <0>         0.1065
     31 N1         -0.4979   -2.7598    1.9615 N.am      1 <0>        -0.4315
     32 N2          6.7507   -2.3007   -1.1235 N.pl3     1 <0>        -0.8671
     33 N3          4.5240   -3.1935   -1.1281 N.pl3     1 <0>        -0.8581
     34 N4          0.4455    0.1980   -0.0008 N.am      1 <0>        -0.5687
     35 N5         -3.9799   -2.3853    1.5634 N.am      1 <0>        -0.5746
     36 N6          4.9906   -1.1661   -2.3638 N.pl3     1 <0>        -0.7533
     37 O1         -0.5362   -1.8555   -0.4928 O.2       1 <0>        -0.5843
     38 O2         -2.2998   -4.1783    2.3409 O.2       1 <0>        -0.6812
     39 O3         -3.9527   -1.0962   -0.3713 O.2       1 <0>        -0.5788
     40 O4        -11.1113   -6.0717    0.6505 O.3       1 <0>        -0.4938
     41 O5          0.9879   -6.5072   -0.1510 O.3       1 <0>        -0.6030
     42 O6         -1.7287    1.6906   -0.9186 O.3       1 <0>        -0.5860
     43 O7         -6.1634   -2.1870   -1.3365 O.3       1 <0>        -0.6021
     44 H1         -9.1028   -2.2030   -0.5918 H         1 <0>         0.1412
     45 H2         -7.1297   -4.6904    2.3201 H         1 <0>         0.1451
     46 H3        -10.9542   -3.8281   -0.7231 H         1 <0>         0.1336
     47 H4         -8.9835   -6.3139    2.1866 H         1 <0>         0.1567
     48 H5          3.5627   -2.8549    0.7003 H         1 <0>         0.0649
     49 H6          2.0259   -2.5829   -0.0837 H         1 <0>         0.0476
     50 H7          2.8567   -4.7427   -0.7790 H         1 <0>         0.0641
     51 H8          3.1032   -5.2618    0.8729 H         1 <0>         0.0484
     52 H9          2.1569   -0.7868    1.7257 H         1 <0>         0.0596
     53 H10         1.5124   -1.2395    3.3116 H         1 <0>         0.0757
     54 H11         1.0921   -5.7802    2.3299 H         1 <0>         0.0782
     55 H12        -0.5175   -5.5090    1.7393 H         1 <0>         0.0812
     56 H13        -0.5378   -0.6778    2.3126 H         1 <0>         0.0731
     57 H14         2.6304   -3.2407    2.8169 H         1 <0>         0.0511
     58 H15         0.4523   -3.8218    3.4319 H         1 <0>         0.0753
     59 H16         0.3841   -4.5700   -0.3844 H         1 <0>         0.0427
     60 H17        -6.0375    0.3284    3.1563 H         1 <0>         0.0450
     61 H18        -5.8542   -1.3328    3.7128 H         1 <0>         0.0406
     62 H19        -5.2988   -0.8789    2.0908 H         1 <0>         0.0274
     63 H20        -3.3028    0.8425    1.9049 H         1 <0>         0.0476
     64 H21        -4.1178    1.8926    3.0773 H         1 <0>         0.0170
     65 H22        -2.4708    1.3315    3.3922 H         1 <0>         0.0477
     66 H23        -6.4655   -2.3612    1.9727 H         1 <0>         0.0814
     67 H24        -7.2864   -1.3519    0.8004 H         1 <0>         0.0685
     68 H25         3.2637    0.7519   -1.6883 H         1 <0>         0.1016
     69 H26         2.8542   -0.7324   -0.8340 H         1 <0>         0.0660
     70 H27         0.9126   -1.0986   -2.3693 H         1 <0>         0.0512
     71 H28         1.3348    0.3408   -3.2751 H         1 <0>         0.0454
     72 H29        -2.0302   -1.0518    4.0061 H         1 <0>         0.0575
     73 H30        -3.3514   -2.1846    4.2177 H         1 <0>         0.0743
     74 H31         3.6213   -0.5411   -3.7968 H         1 <0>         0.0662
     75 H32         3.2008   -2.0392   -2.9543 H         1 <0>         0.0622
     76 H33        -1.4861   -0.0829   -1.9233 H         1 <0>         0.0321
     77 H34        -1.0136    1.3790   -2.8073 H         1 <0>         0.0204
     78 H35        -2.3647   -1.1082    1.5019 H         1 <0>         0.0749
     79 H36        -5.5777   -3.7409   -0.1372 H         1 <0>         0.0719
     80 H37        -4.1195    0.0762    4.7551 H         1 <0>         0.0609
     81 H38         0.9010    1.7469   -1.2960 H         1 <0>         0.1063
     82 H39         7.4450   -1.6119   -1.4004 H         1 <0>         0.4792
     83 H40         7.0644   -3.0629   -0.5269 H         1 <0>         0.4819
     84 H41         3.5482   -3.1633   -1.4135 H         1 <0>         0.4802
     85 H42         4.8167   -3.9627   -0.5303 H         1 <0>         0.4826
     86 H43         0.8216    0.7626    0.7549 H         1 <0>         0.3101
     87 H44        -4.4957   -3.1095    2.0656 H         1 <0>         0.3087
     88 H45         5.6979   -0.4732   -2.6373 H         1 <0>         0.4846
     89 H46       -11.4852   -6.0838   -0.2450 H         1 <0>         0.4194
     90 H47         1.8515   -6.8926    0.0654 H         1 <0>         0.4036
     91 H48        -1.9874    1.1133   -0.1822 H         1 <0>         0.4114
     92 H49        -7.1203   -2.0275   -1.2920 H         1 <0>         0.3944
@<TRIPOS>BOND
     1    1    3 ar
     2    1    5 ar
     3    2    4 ar
     4    2    5 ar
     5    3    6 ar
     6    4    6 ar
     7    5   21 1
     8    6   40 1
     9    7   15 1
    10    7   34 am
    11    7   37 2
    12    8   27 1
    13    8   31 am
    14    8   38 2
    15    9   28 1
    16    9   35 am
    17    9   39 2
    18   10   32 1
    19   10   33 1
    20   10   36 1
    21   11   12 1
    22   11   16 1
    23   12   18 1
    24   13   15 1
    25   13   16 1
    26   14   17 1
    27   14   18 1
    28   15   31 1
    29   16   17 1
    30   17   31 1
    31   18   41 1
    32   19   29 1
    33   20   29 1
    34   21   28 1
    35   22   23 1
    36   22   25 1
    37   23   30 1
    38   24   27 1
    39   24   29 1
    40   25   36 1
    41   26   30 1
    42   26   42 1
    43   27   35 1
    44   28   43 1
    45   30   34 1
    46    1   44 1
    47    2   45 1
    48    3   46 1
    49    4   47 1
    50   11   48 1
    51   11   49 1
    52   12   50 1
    53   12   51 1
    54   13   52 1
    55   13   53 1
    56   14   54 1
    57   14   55 1
    58   15   56 1
    59   16   57 1
    60   17   58 1
    61   18   59 1
    62   19   60 1
    63   19   61 1
    64   19   62 1
    65   20   63 1
    66   20   64 1
    67   20   65 1
    68   21   66 1
    69   21   67 1
    70   22   68 1
    71   22   69 1
    72   23   70 1
    73   23   71 1
    74   24   72 1
    75   24   73 1
    76   25   74 1
    77   25   75 1
    78   26   76 1
    79   26   77 1
    80   27   78 1
    81   28   79 1
    82   29   80 1
    83   30   81 1
    84   32   82 1
    85   32   83 1
    86   33   84 1
    87   33   85 1
    88   34   86 1
    89   35   87 1
    90   36   88 1
    91   40   89 1
    92   41   90 1
    93   42   91 1
    94   43   92 1
@<TRIPOS>MOLECULE
1a2c_ligand_290
   92    94     0     0     0
SMALL
USER_CHARGES

mmff94s_NoEstat = 127.30
@<TRIPOS>ATOM
      1 C1          8.8622   -3.0350    1.6251 C.ar      1 <0>        -0.0708
      2 C2          8.3324   -5.0246    2.8891 C.ar      1 <0>        -0.0872
      3 C3         10.1454   -3.5276    1.3875 C.ar      1 <0>        -0.2241
      4 C4          9.6155   -5.5173    2.6515 C.ar      1 <0>        -0.1600
      5 C5          7.9730   -3.7901    2.3726 C.ar      1 <0>        -0.1356
      6 C6         10.5221   -4.7688    1.9007 C.ar      1 <0>         0.1290
      7 C7          0.1755   -1.0766    0.1327 C.2       1 <0>         0.6664
      8 C8          2.3785   -0.9757    2.2764 C.2       1 <0>         0.6651
      9 C9          5.0726   -2.2851    4.3841 C.2       1 <0>         0.6454
     10 C10        -2.6284    5.4301   -1.9251 C.cat     1 <0>         0.6349
     11 C11         2.4521   -5.3069   -0.2561 C.3       1 <0>        -0.0642
     12 C12         1.2413   -5.9691    0.3982 C.3       1 <0>        -0.0747
     13 C13         1.5734   -2.9393   -0.7647 C.3       1 <0>        -0.0873
     14 C14         1.0938   -4.1277    2.1072 C.3       1 <0>        -0.1371
     15 C15         1.5650   -1.6216    0.0133 C.3       1 <0>         0.0360
     16 C16         2.5597   -3.8106    0.0203 C.3       1 <0>        -0.0720
     17 C17         2.2934   -3.4012    1.4755 C.3       1 <0>         0.1201
     18 C18         1.1411   -5.6363    1.8853 C.3       1 <0>         0.1453
     19 C19         0.2658   -1.3152    5.2616 C.3       1 <0>        -0.0968
     20 C20         0.5109    0.5548    3.6177 C.3       1 <0>        -0.0986
     21 C21         6.5836   -3.2570    2.6292 C.3       1 <0>        -0.0191
     22 C22        -0.8392    2.2664   -0.8852 C.3       1 <0>        -0.1009
     23 C23        -1.6754    1.2905   -1.7214 C.3       1 <0>        -0.0942
     24 C24         2.5770   -0.3966    4.6867 C.3       1 <0>        -0.0988
     25 C25        -0.9003    3.6784   -1.4634 C.3       1 <0>         0.1966
     26 C26        -2.5783   -1.1036   -2.0263 C.3       1 <0>         0.1128
     27 C27         2.8496   -1.4560    3.6253 C.3       1 <0>         0.0786
     28 C28         6.5149   -2.4235    3.9131 C.3       1 <0>         0.0744
     29 C29         1.0824   -0.0766    4.8902 C.3       1 <0>        -0.0678
     30 C30        -1.7203   -0.1547   -1.1858 C.3       1 <0>         0.1065
     31 N1          2.0322   -1.9586    1.3590 N.am      1 <0>        -0.4315
     32 N2         -3.9568    5.8427   -1.9149 N.pl3     1 <0>        -0.8671
     33 N3         -1.6515    6.3017   -2.3941 N.pl3     1 <0>        -0.8581
     34 N4         -0.3878   -0.7030   -1.0725 N.am      1 <0>        -0.5687
     35 N5          4.2458   -1.7091    3.4221 N.am      1 <0>        -0.5746
     36 N6         -2.2644    4.1511   -1.4699 N.pl3     1 <0>        -0.7533
     37 O1         -0.3509   -1.0007    1.2367 O.2       1 <0>        -0.5843
     38 O2          2.3230    0.2335    2.0409 O.2       1 <0>        -0.6812
     39 O3          4.7067   -2.6383    5.5030 O.2       1 <0>        -0.5788
     40 O4         11.7737   -5.2502    1.6675 O.3       1 <0>        -0.4938
     41 O5          2.2611   -6.1715    2.5852 O.3       1 <0>        -0.6030
     42 O6         -2.5724   -2.4015   -1.4465 O.3       1 <0>        -0.5860
     43 O7          7.0225   -1.1238    3.6474 O.3       1 <0>        -0.6021
     44 H1          8.5780   -2.0670    1.2214 H         1 <0>         0.1412
     45 H2          7.6325   -5.6149    3.4749 H         1 <0>         0.1451
     46 H3         10.8469   -2.9400    0.8019 H         1 <0>         0.1336
     47 H4          9.9028   -6.4854    3.0532 H         1 <0>         0.1567
     48 H5          3.3605   -5.7937    0.1218 H         1 <0>         0.0649
     49 H6          2.4319   -5.4897   -1.3370 H         1 <0>         0.0476
     50 H7          0.3241   -5.6545   -0.1129 H         1 <0>         0.0641
     51 H8          1.3294   -7.0545    0.2691 H         1 <0>         0.0484
     52 H9          0.5754   -3.3919   -0.8000 H         1 <0>         0.0596
     53 H10         1.8977   -2.7914   -1.8003 H         1 <0>         0.0757
     54 H11         1.0807   -3.9085    3.1823 H         1 <0>         0.0782
     55 H12         0.1523   -3.7376    1.7002 H         1 <0>         0.0812
     56 H13         2.2202   -0.8626   -0.4249 H         1 <0>         0.0731
     57 H14         3.5726   -3.4842   -0.2571 H         1 <0>         0.0511
     58 H15         3.1875   -3.5701    2.0864 H         1 <0>         0.0753
     59 H16         0.2435   -6.1003    2.3075 H         1 <0>         0.0427
     60 H17        -0.8003   -1.0721    5.3268 H         1 <0>         0.0450
     61 H18         0.5656   -1.7135    6.2354 H         1 <0>         0.0406
     62 H19         0.3859   -2.1083    4.5157 H         1 <0>         0.0274
     63 H20         0.5734   -0.1347    2.7689 H         1 <0>         0.0476
     64 H21        -0.5410    0.8267    3.7565 H         1 <0>         0.0170
     65 H22         1.0580    1.4667    3.3557 H         1 <0>         0.0477
     66 H23         5.8804   -4.0985    2.6887 H         1 <0>         0.0814
     67 H24         6.2730   -2.6689    1.7565 H         1 <0>         0.0685
     68 H25        -1.2041    2.2870    0.1483 H         1 <0>         0.1016
     69 H26         0.2054    1.9349   -0.8467 H         1 <0>         0.0660
     70 H27        -1.2820    1.2733   -2.7469 H         1 <0>         0.0512
     71 H28        -2.7004    1.6751   -1.7996 H         1 <0>         0.0454
     72 H29         3.1135    0.5249    4.4229 H         1 <0>         0.0575
     73 H30         2.9989   -0.7249    5.6470 H         1 <0>         0.0743
     74 H31        -0.5130    3.6867   -2.4878 H         1 <0>         0.0662
     75 H32        -0.2876    4.3637   -0.8686 H         1 <0>         0.0622
     76 H33        -2.2157   -1.1795   -3.0567 H         1 <0>         0.0321
     77 H34        -3.6169   -0.7550   -2.0576 H         1 <0>         0.0204
     78 H35         2.3493   -2.4014    3.8315 H         1 <0>         0.0749
     79 H36         7.1142   -2.8690    4.7159 H         1 <0>         0.0719
     80 H37         0.9798    0.6574    5.6989 H         1 <0>         0.0609
     81 H38        -2.1562   -0.1031   -0.1797 H         1 <0>         0.1063
     82 H39        -4.7045    5.2392   -1.5832 H         1 <0>         0.4792
     83 H40        -4.2189    6.7685   -2.2453 H         1 <0>         0.4819
     84 H41        -0.6709    6.0323   -2.4155 H         1 <0>         0.4802
     85 H42        -1.8920    7.2322   -2.7271 H         1 <0>         0.4826
     86 H43         0.1607   -0.8193   -1.9192 H         1 <0>         0.3101
     87 H44         4.6569   -1.4532    2.5231 H         1 <0>         0.3087
     88 H45        -3.0256    3.5484   -1.1344 H         1 <0>         0.4846
     89 H46        12.4103   -4.5198    1.6135 H         1 <0>         0.4194
     90 H47         2.7873   -5.4145    2.8873 H         1 <0>         0.4036
     91 H48        -1.7464   -2.8287   -1.7250 H         1 <0>         0.4114
     92 H49         7.5106   -1.1786    2.8096 H         1 <0>         0.3944
@<TRIPOS>BOND
     1    1    3 ar
     2    1    5 ar
     3    2    4 ar
     4    2    5 ar
     5    3    6 ar
     6    4    6 ar
     7    5   21 1
     8    6   40 1
     9    7   15 1
    10    7   34 am
    11    7   37 2
    12    8   27 1
    13    8   31 am
    14    8   38 2
    15    9   28 1
    16    9   35 am
    17    9   39 2
    18   10   32 1
    19   10   33 1
    20   10   36 1
    21   11   12 1
    22   11   16 1
    23   12   18 1
    24   13   15 1
    25   13   16 1
    26   14   17 1
    27   14   18 1
    28   15   31 1
    29   16   17 1
    30   17   31 1
    31   18   41 1
    32   19   29 1
    33   20   29 1
    34   21   28 1
    35   22   23 1
    36   22   25 1
    37   23   30 1
    38   24   27 1
    39   24   29 1
    40   25   36 1
    41   26   30 1
    42   26   42 1
    43   27   35 1
    44   28   43 1
    45   30   34 1
    46    1   44 1
    47    2   45 1
    48    3   46 1
    49    4   47 1
    50   11   48 1
    51   11   49 1
    52   12   50 1
    53   12   51 1
    54   13   52 1
    55   13   53 1
    56   14   54 1
    57   14   55 1
    58   15   56 1
    59   16   57 1
    60   17   58 1
    61   18   59 1
    62   19   60 1
    63   19   61 1
    64   19   62 1
    65   20   63 1
    66   20   64 1
    67   20   65 1
    68   21   66 1
    69   21   67 1
    70   22   68 1
    71   22   69 1
    72   23   70 1
    73   23   71 1
    74   24   72 1
    75   24   73 1
    76   25   74 1
    77   25   75 1
    78   26   76 1
    79   26   77 1
    80   27   78 1
    81   28   79 1
    82   29   80 1
    83   30   81 1
    84   32   82 1
    85   32   83 1
    86   33   84 1
    87   33   85 1
    88   34   86 1
    89   35   87 1
    90   36   88 1
    91   40   89 1
    92   41   90 1
    93   42   91 1
    94   43   92 1
@<TRIPOS>MOLECULE
1a2c_ligand_291
   92    94     0     0     0
SMALL
USER_CHARGES

mmff94s_NoEstat = 127.30
@<TRIPOS>ATOM
      1 C1          9.6504   -3.2453    4.3054 C.ar      1 <0>        -0.0708
      2 C2          9.0278   -0.9262    4.5716 C.ar      1 <0>        -0.0872
      3 C3         10.9570   -2.8601    4.0052 C.ar      1 <0>        -0.2241
      4 C4         10.3344   -0.5409    4.2715 C.ar      1 <0>        -0.1600
      5 C5          8.7034   -2.2732    4.5846 C.ar      1 <0>        -0.1356
      6 C6         11.2990   -1.5079    3.9882 C.ar      1 <0>         0.1290
      7 C7          0.1755   -1.0766    0.1327 C.2       1 <0>         0.6664
      8 C8          2.3785   -0.9757    2.2764 C.2       1 <0>         0.6651
      9 C9          4.9366   -2.7533    4.0331 C.2       1 <0>         0.6454
     10 C10        -2.8003    4.5299   -4.2598 C.cat     1 <0>         0.6349
     11 C11         2.4521   -5.3069   -0.2561 C.3       1 <0>        -0.0642
     12 C12         1.2413   -5.9691    0.3982 C.3       1 <0>        -0.0747
     13 C13         1.5734   -2.9393   -0.7647 C.3       1 <0>        -0.0873
     14 C14         1.0938   -4.1277    2.1072 C.3       1 <0>        -0.1371
     15 C15         1.5650   -1.6216    0.0133 C.3       1 <0>         0.0360
     16 C16         2.5597   -3.8106    0.0203 C.3       1 <0>        -0.0720
     17 C17         2.2934   -3.4012    1.4755 C.3       1 <0>         0.1201
     18 C18         1.1411   -5.6363    1.8853 C.3       1 <0>         0.1453
     19 C19         0.2658   -1.3152    5.2616 C.3       1 <0>        -0.0968
     20 C20         0.5109    0.5548    3.6177 C.3       1 <0>        -0.0986
     21 C21         7.2890   -2.6903    4.9103 C.3       1 <0>        -0.0191
     22 C22        -0.8155    2.0502   -2.2095 C.3       1 <0>        -0.1009
     23 C23        -1.7941    0.8762   -2.3301 C.3       1 <0>        -0.0942
     24 C24         2.5770   -0.3966    4.6867 C.3       1 <0>        -0.0988
     25 C25        -1.0015    3.0414   -3.3563 C.3       1 <0>         0.1966
     26 C26        -2.7214   -1.3050   -1.3187 C.3       1 <0>         0.1128
     27 C27         2.8496   -1.4560    3.6253 C.3       1 <0>         0.0786
     28 C28         6.4127   -2.7813    3.6567 C.3       1 <0>         0.0744
     29 C29         1.0824   -0.0766    4.8902 C.3       1 <0>        -0.0678
     30 C30        -1.7203   -0.1547   -1.1858 C.3       1 <0>         0.1065
     31 N1          2.0322   -1.9586    1.3590 N.am      1 <0>        -0.4315
     32 N2         -4.1031    5.0141   -4.2037 N.pl3     1 <0>        -0.8671
     33 N3         -1.9432    5.0032   -5.2474 N.pl3     1 <0>        -0.8581
     34 N4         -0.3878   -0.7030   -1.0725 N.am      1 <0>        -0.5687
     35 N5          4.2458   -1.7091    3.4221 N.am      1 <0>        -0.5746
     36 N6         -2.3430    3.5743   -3.3360 N.pl3     1 <0>        -0.7533
     37 O1         -0.3509   -1.0007    1.2367 O.2       1 <0>        -0.5843
     38 O2          2.3230    0.2335    2.0409 O.2       1 <0>        -0.6812
     39 O3          4.4369   -3.5674    4.8063 O.2       1 <0>        -0.5788
     40 O4         12.5744   -1.1321    3.6969 O.3       1 <0>        -0.4938
     41 O5          2.2611   -6.1715    2.5852 O.3       1 <0>        -0.6030
     42 O6         -2.4752   -2.0231   -2.5206 O.3       1 <0>        -0.5860
     43 O7          6.6796   -4.0096    2.9951 O.3       1 <0>        -0.6021
     44 H1          9.3934   -4.3011    4.3161 H         1 <0>         0.1412
     45 H2          8.2829   -0.1658    4.7913 H         1 <0>         0.1451
     46 H3         11.7038   -3.6180    3.7857 H         1 <0>         0.1336
     47 H4         10.5950    0.5141    4.2607 H         1 <0>         0.1567
     48 H5          3.3605   -5.7937    0.1218 H         1 <0>         0.0649
     49 H6          2.4319   -5.4897   -1.3370 H         1 <0>         0.0476
     50 H7          0.3241   -5.6545   -0.1129 H         1 <0>         0.0641
     51 H8          1.3294   -7.0545    0.2691 H         1 <0>         0.0484
     52 H9          0.5754   -3.3919   -0.8000 H         1 <0>         0.0596
     53 H10         1.8977   -2.7914   -1.8003 H         1 <0>         0.0757
     54 H11         1.0807   -3.9085    3.1823 H         1 <0>         0.0782
     55 H12         0.1523   -3.7376    1.7002 H         1 <0>         0.0812
     56 H13         2.2202   -0.8626   -0.4249 H         1 <0>         0.0731
     57 H14         3.5726   -3.4842   -0.2571 H         1 <0>         0.0511
     58 H15         3.1875   -3.5701    2.0864 H         1 <0>         0.0753
     59 H16         0.2435   -6.1003    2.3075 H         1 <0>         0.0427
     60 H17        -0.8003   -1.0721    5.3268 H         1 <0>         0.0450
     61 H18         0.5656   -1.7135    6.2354 H         1 <0>         0.0406
     62 H19         0.3859   -2.1083    4.5157 H         1 <0>         0.0274
     63 H20         0.5734   -0.1347    2.7689 H         1 <0>         0.0476
     64 H21        -0.5410    0.8267    3.7565 H         1 <0>         0.0170
     65 H22         1.0580    1.4667    3.3557 H         1 <0>         0.0477
     66 H23         6.8566   -1.9729    5.6205 H         1 <0>         0.0814
     67 H24         7.3258   -3.6505    5.4401 H         1 <0>         0.0685
     68 H25        -0.9672    2.5721   -1.2575 H         1 <0>         0.1016
     69 H26         0.2183    1.6845   -2.2100 H         1 <0>         0.0660
     70 H27        -1.6130    0.3584   -3.2819 H         1 <0>         0.0512
     71 H28        -2.8171    1.2691   -2.3922 H         1 <0>         0.0454
     72 H29         3.1135    0.5249    4.4229 H         1 <0>         0.0575
     73 H30         2.9989   -0.7249    5.6470 H         1 <0>         0.0743
     74 H31        -0.8263    2.5473   -4.3177 H         1 <0>         0.0662
     75 H32        -0.2878    3.8671   -3.2695 H         1 <0>         0.0622
     76 H33        -3.7565   -0.9478   -1.3308 H         1 <0>         0.0321
     77 H34        -2.6144   -2.0048   -0.4820 H         1 <0>         0.0204
     78 H35         2.3493   -2.4014    3.8315 H         1 <0>         0.0749
     79 H36         6.6213   -1.9623    2.9582 H         1 <0>         0.0719
     80 H37         0.9798    0.6574    5.6989 H         1 <0>         0.0609
     81 H38        -1.9472    0.3883   -0.2591 H         1 <0>         0.1063
     82 H39        -4.7650    4.6958   -3.5009 H         1 <0>         0.4792
     83 H40        -4.4329    5.7054   -4.8734 H         1 <0>         0.4819
     84 H41        -0.9845    4.6705   -5.3172 H         1 <0>         0.4802
     85 H42        -2.2524    5.6955   -5.9254 H         1 <0>         0.4826
     86 H43         0.1607   -0.8193   -1.9192 H         1 <0>         0.3101
     87 H44         4.7623   -1.0902    2.7952 H         1 <0>         0.3087
     88 H45        -3.0174    3.2595   -2.6280 H         1 <0>         0.4846
     89 H46        12.9730   -1.7545    3.0679 H         1 <0>         0.4194
     90 H47         2.7873   -5.4145    2.8873 H         1 <0>         0.4036
     91 H48        -2.8906   -1.5183   -3.2383 H         1 <0>         0.4114
     92 H49         7.5148   -4.3480    3.3569 H         1 <0>         0.3944
@<TRIPOS>BOND
     1    1    3 ar
     2    1    5 ar
     3    2    4 ar
     4    2    5 ar
     5    3    6 ar
     6    4    6 ar
     7    5   21 1
     8    6   40 1
     9    7   15 1
    10    7   34 am
    11    7   37 2
    12    8   27 1
    13    8   31 am
    14    8   38 2
    15    9   28 1
    16    9   35 am
    17    9   39 2
    18   10   32 1
    19   10   33 1
    20   10   36 1
    21   11   12 1
    22   11   16 1
    23   12   18 1
    24   13   15 1
    25   13   16 1
    26   14   17 1
    27   14   18 1
    28   15   31 1
    29   16   17 1
    30   17   31 1
    31   18   41 1
    32   19   29 1
    33   20   29 1
    34   21   28 1
    35   22   23 1
    36   22   25 1
    37   23   30 1
    38   24   27 1
    39   24   29 1
    40   25   36 1
    41   26   30 1
    42   26   42 1
    43   27   35 1
    44   28   43 1
    45   30   34 1
    46    1   44 1
    47    2   45 1
    48    3   46 1
    49    4   47 1
    50   11   48 1
    51   11   49 1
    52   12   50 1
    53   12   51 1
    54   13   52 1
    55   13   53 1
    56   14   54 1
    57   14   55 1
    58   15   56 1
    59   16   57 1
    60   17   58 1
    61   18   59 1
    62   19   60 1
    63   19   61 1
    64   19   62 1
    65   20   63 1
    66   20   64 1
    67   20   65 1
    68   21   66 1
    69   21   67 1
    70   22   68 1
    71   22   69 1
    72   23   70 1
    73   23   71 1
    74   24   72 1
    75   24   73 1
    76   25   74 1
    77   25   75 1
    78   26   76 1
    79   26   77 1
    80   27   78 1
    81   28   79 1
    82   29   80 1
    83   30   81 1
    84   32   82 1
    85   32   83 1
    86   33   84 1
    87   33   85 1
    88   34   86 1
    89   35   87 1
    90   36   88 1
    91   40   89 1
    92   41   90 1
    93   42   91 1
    94   43   92 1
@<TRIPOS>MOLECULE
1a2c_ligand_292
   92    94     0     0     0
SMALL
USER_CHARGES

mmff94s_NoEstat = 127.34
@<TRIPOS>ATOM
      1 C1          5.9138   -0.5962    6.1255 C.ar      1 <0>        -0.0708
      2 C2          7.9613   -1.8359    6.4541 C.ar      1 <0>        -0.0872
      3 C3          5.8030   -0.4139    7.5039 C.ar      1 <0>        -0.2241
      4 C4          7.8505   -1.6536    7.8326 C.ar      1 <0>        -0.1600
      5 C5          6.9915   -1.3047    5.6191 C.ar      1 <0>        -0.1356
      6 C6          6.7713   -0.9426    8.3575 C.ar      1 <0>         0.1290
      7 C7          0.1755   -1.0766    0.1327 C.2       1 <0>         0.6664
      8 C8          2.3785   -0.9757    2.2764 C.2       1 <0>         0.6651
      9 C9          4.9366   -2.7533    4.0331 C.2       1 <0>         0.6454
     10 C10         0.0566    5.9382   -0.9679 C.cat     1 <0>         0.6349
     11 C11         2.4521   -5.3069   -0.2561 C.3       1 <0>        -0.0642
     12 C12         1.2413   -5.9691    0.3982 C.3       1 <0>        -0.0747
     13 C13         1.5734   -2.9393   -0.7647 C.3       1 <0>        -0.0873
     14 C14         1.0938   -4.1277    2.1072 C.3       1 <0>        -0.1371
     15 C15         1.5650   -1.6216    0.0133 C.3       1 <0>         0.0360
     16 C16         2.5597   -3.8106    0.0203 C.3       1 <0>        -0.0720
     17 C17         2.2934   -3.4012    1.4755 C.3       1 <0>         0.1201
     18 C18         1.1411   -5.6363    1.8853 C.3       1 <0>         0.1453
     19 C19         0.2658   -1.3152    5.2616 C.3       1 <0>        -0.0968
     20 C20         0.5109    0.5548    3.6177 C.3       1 <0>        -0.0986
     21 C21         7.1118   -1.5015    4.1267 C.3       1 <0>        -0.0191
     22 C22        -0.8392    2.2664   -0.8852 C.3       1 <0>        -0.1009
     23 C23        -1.6754    1.2905   -1.7214 C.3       1 <0>        -0.0942
     24 C24         2.5770   -0.3966    4.6867 C.3       1 <0>        -0.0988
     25 C25        -0.9003    3.6784   -1.4634 C.3       1 <0>         0.1966
     26 C26        -2.5783   -1.1036   -2.0263 C.3       1 <0>         0.1128
     27 C27         2.8496   -1.4560    3.6253 C.3       1 <0>         0.0786
     28 C28         6.4127   -2.7813    3.6567 C.3       1 <0>         0.0744
     29 C29         1.0824   -0.0766    4.8902 C.3       1 <0>        -0.0678
     30 C30        -1.7203   -0.1547   -1.1858 C.3       1 <0>         0.1065
     31 N1          2.0322   -1.9586    1.3590 N.am      1 <0>        -0.4315
     32 N2          0.8383    6.7654   -0.1682 N.pl3     1 <0>        -0.8671
     33 N3         -0.5783    6.4758   -2.0824 N.pl3     1 <0>        -0.8581
     34 N4         -0.3878   -0.7030   -1.0725 N.am      1 <0>        -0.5687
     35 N5          4.2458   -1.7091    3.4221 N.am      1 <0>        -0.5746
     36 N6         -0.0981    4.5744   -0.6649 N.pl3     1 <0>        -0.7533
     37 O1         -0.3509   -1.0007    1.2367 O.2       1 <0>        -0.5843
     38 O2          2.3230    0.2335    2.0409 O.2       1 <0>        -0.6812
     39 O3          4.4369   -3.5674    4.8063 O.2       1 <0>        -0.5788
     40 O4          6.6640   -0.7633    9.7025 O.3       1 <0>        -0.4938
     41 O5          2.2611   -6.1715    2.5852 O.3       1 <0>        -0.6030
     42 O6         -2.5724   -2.4015   -1.4465 O.3       1 <0>        -0.5860
     43 O7          7.0137   -3.8976    4.2972 O.3       1 <0>        -0.6021
     44 H1          5.1545   -0.1808    5.4685 H         1 <0>         0.1412
     45 H2          8.8058   -2.3911    6.0540 H         1 <0>         0.1451
     46 H3          4.9602    0.1409    7.9067 H         1 <0>         0.1336
     47 H4          8.6086   -2.0672    8.4924 H         1 <0>         0.1567
     48 H5          3.3605   -5.7937    0.1218 H         1 <0>         0.0649
     49 H6          2.4319   -5.4897   -1.3370 H         1 <0>         0.0476
     50 H7          0.3241   -5.6545   -0.1129 H         1 <0>         0.0641
     51 H8          1.3294   -7.0545    0.2691 H         1 <0>         0.0484
     52 H9          0.5754   -3.3919   -0.8000 H         1 <0>         0.0596
     53 H10         1.8977   -2.7914   -1.8003 H         1 <0>         0.0757
     54 H11         1.0807   -3.9085    3.1823 H         1 <0>         0.0782
     55 H12         0.1523   -3.7376    1.7002 H         1 <0>         0.0812
     56 H13         2.2202   -0.8626   -0.4249 H         1 <0>         0.0731
     57 H14         3.5726   -3.4842   -0.2571 H         1 <0>         0.0511
     58 H15         3.1875   -3.5701    2.0864 H         1 <0>         0.0753
     59 H16         0.2435   -6.1003    2.3075 H         1 <0>         0.0427
     60 H17        -0.8003   -1.0721    5.3268 H         1 <0>         0.0450
     61 H18         0.5656   -1.7135    6.2354 H         1 <0>         0.0406
     62 H19         0.3859   -2.1083    4.5157 H         1 <0>         0.0274
     63 H20         0.5734   -0.1347    2.7689 H         1 <0>         0.0476
     64 H21        -0.5410    0.8267    3.7565 H         1 <0>         0.0170
     65 H22         1.0580    1.4667    3.3557 H         1 <0>         0.0477
     66 H23         8.1748   -1.5306    3.8520 H         1 <0>         0.0814
     67 H24         6.6981   -0.6163    3.6275 H         1 <0>         0.0685
     68 H25        -1.2041    2.2870    0.1483 H         1 <0>         0.1016
     69 H26         0.2054    1.9349   -0.8467 H         1 <0>         0.0660
     70 H27        -1.2820    1.2733   -2.7469 H         1 <0>         0.0512
     71 H28        -2.7004    1.6751   -1.7996 H         1 <0>         0.0454
     72 H29         3.1135    0.5249    4.4229 H         1 <0>         0.0575
     73 H30         2.9989   -0.7249    5.6470 H         1 <0>         0.0743
     74 H31        -1.9343    4.0389   -1.4775 H         1 <0>         0.0662
     75 H32        -0.5286    3.6880   -2.4933 H         1 <0>         0.0622
     76 H33        -2.2157   -1.1795   -3.0567 H         1 <0>         0.0321
     77 H34        -3.6169   -0.7550   -2.0576 H         1 <0>         0.0204
     78 H35         2.3493   -2.4014    3.8315 H         1 <0>         0.0749
     79 H36         6.5048   -2.9166    2.5725 H         1 <0>         0.0719
     80 H37         0.9798    0.6574    5.6989 H         1 <0>         0.0609
     81 H38        -2.1562   -0.1031   -0.1797 H         1 <0>         0.1063
     82 H39         1.3192    6.4171    0.6569 H         1 <0>         0.4792
     83 H40         0.9489    7.7525   -0.3884 H         1 <0>         0.4819
     84 H41        -1.1572    5.8995   -2.6884 H         1 <0>         0.4802
     85 H42        -0.4794    7.4595   -2.3213 H         1 <0>         0.4826
     86 H43         0.1607   -0.8193   -1.9192 H         1 <0>         0.3101
     87 H44         4.7623   -1.0902    2.7952 H         1 <0>         0.3087
     88 H45         0.3928    4.2301    0.1692 H         1 <0>         0.4846
     89 H46         5.7300   -0.7369    9.9648 H         1 <0>         0.4194
     90 H47         2.7873   -5.4145    2.8873 H         1 <0>         0.4036
     91 H48        -1.7464   -2.8287   -1.7250 H         1 <0>         0.4114
     92 H49         7.8613   -3.5912    4.6591 H         1 <0>         0.3944
@<TRIPOS>BOND
     1    1    3 ar
     2    1    5 ar
     3    2    4 ar
     4    2    5 ar
     5    3    6 ar
     6    4    6 ar
     7    5   21 1
     8    6   40 1
     9    7   15 1
    10    7   34 am
    11    7   37 2
    12    8   27 1
    13    8   31 am
    14    8   38 2
    15    9   28 1
    16    9   35 am
    17    9   39 2
    18   10   32 1
    19   10   33 1
    20   10   36 1
    21   11   12 1
    22   11   16 1
    23   12   18 1
    24   13   15 1
    25   13   16 1
    26   14   17 1
    27   14   18 1
    28   15   31 1
    29   16   17 1
    30   17   31 1
    31   18   41 1
    32   19   29 1
    33   20   29 1
    34   21   28 1
    35   22   23 1
    36   22   25 1
    37   23   30 1
    38   24   27 1
    39   24   29 1
    40   25   36 1
    41   26   30 1
    42   26   42 1
    43   27   35 1
    44   28   43 1
    45   30   34 1
    46    1   44 1
    47    2   45 1
    48    3   46 1
    49    4   47 1
    50   11   48 1
    51   11   49 1
    52   12   50 1
    53   12   51 1
    54   13   52 1
    55   13   53 1
    56   14   54 1
    57   14   55 1
    58   15   56 1
    59   16   57 1
    60   17   58 1
    61   18   59 1
    62   19   60 1
    63   19   61 1
    64   19   62 1
    65   20   63 1
    66   20   64 1
    67   20   65 1
    68   21   66 1
    69   21   67 1
    70   22   68 1
    71   22   69 1
    72   23   70 1
    73   23   71 1
    74   24   72 1
    75   24   73 1
    76   25   74 1
    77   25   75 1
    78   26   76 1
    79   26   77 1
    80   27   78 1
    81   28   79 1
    82   29   80 1
    83   30   81 1
    84   32   82 1
    85   32   83 1
    86   33   84 1
    87   33   85 1
    88   34   86 1
    89   35   87 1
    90   36   88 1
    91   40   89 1
    92   41   90 1
    93   42   91 1
    94   43   92 1
@<TRIPOS>MOLECULE
1a2c_ligand_293
   92    94     0     0     0
SMALL
USER_CHARGES

mmff94s_NoEstat = 127.63
@<TRIPOS>ATOM
      1 C1          8.8398   -0.2973    5.0051 C.ar      1 <0>        -0.0708
      2 C2          6.9606   -0.3937    6.5205 C.ar      1 <0>        -0.0872
      3 C3          9.1107    1.0054    5.4239 C.ar      1 <0>        -0.2241
      4 C4          7.2315    0.9090    6.9393 C.ar      1 <0>        -0.1600
      5 C5          7.7685   -0.9793    5.5591 C.ar      1 <0>        -0.1356
      6 C6          8.3065    1.6085    6.3910 C.ar      1 <0>         0.1290
      7 C7          0.1755   -1.0766    0.1327 C.2       1 <0>         0.6664
      8 C8          2.3785   -0.9757    2.2764 C.2       1 <0>         0.6651
      9 C9          5.0726   -2.2851    4.3841 C.2       1 <0>         0.6454
     10 C10        -0.3528    4.8369   -3.6143 C.cat     1 <0>         0.6349
     11 C11         2.4521   -5.3069   -0.2561 C.3       1 <0>        -0.0642
     12 C12         1.2413   -5.9691    0.3982 C.3       1 <0>        -0.0747
     13 C13         1.5734   -2.9393   -0.7647 C.3       1 <0>        -0.0873
     14 C14         1.0938   -4.1277    2.1072 C.3       1 <0>        -0.1371
     15 C15         1.5650   -1.6216    0.0133 C.3       1 <0>         0.0360
     16 C16         2.5597   -3.8106    0.0203 C.3       1 <0>        -0.0720
     17 C17         2.2934   -3.4012    1.4755 C.3       1 <0>         0.1201
     18 C18         1.1411   -5.6363    1.8853 C.3       1 <0>         0.1453
     19 C19         0.2658   -1.3152    5.2616 C.3       1 <0>        -0.0968
     20 C20         0.5109    0.5548    3.6177 C.3       1 <0>        -0.0986
     21 C21         7.4757   -2.3898    5.1062 C.3       1 <0>        -0.0191
     22 C22        -0.8392    2.2664   -0.8852 C.3       1 <0>        -0.1009
     23 C23        -1.6754    1.2905   -1.7214 C.3       1 <0>        -0.0942
     24 C24         2.5770   -0.3966    4.6867 C.3       1 <0>        -0.0988
     25 C25        -0.9003    3.6784   -1.4634 C.3       1 <0>         0.1966
     26 C26        -2.5783   -1.1036   -2.0263 C.3       1 <0>         0.1128
     27 C27         2.8496   -1.4560    3.6253 C.3       1 <0>         0.0786
     28 C28         6.5149   -2.4235    3.9131 C.3       1 <0>         0.0744
     29 C29         1.0824   -0.0766    4.8902 C.3       1 <0>        -0.0678
     30 C30        -1.7203   -0.1547   -1.1858 C.3       1 <0>         0.1065
     31 N1          2.0322   -1.9586    1.3590 N.am      1 <0>        -0.4315
     32 N2          0.1422    4.7922   -4.9135 N.pl3     1 <0>        -0.8671
     33 N3         -0.8082    6.0476   -3.1036 N.pl3     1 <0>        -0.8581
     34 N4         -0.3878   -0.7030   -1.0725 N.am      1 <0>        -0.5687
     35 N5          4.2458   -1.7091    3.4221 N.am      1 <0>        -0.5746
     36 N6         -0.3977    3.6803   -2.8168 N.pl3     1 <0>        -0.7533
     37 O1         -0.3509   -1.0007    1.2367 O.2       1 <0>        -0.5843
     38 O2          2.3230    0.2335    2.0409 O.2       1 <0>        -0.6812
     39 O3          4.7067   -2.6383    5.5030 O.2       1 <0>        -0.5788
     40 O4          8.5718    2.8791    6.8008 O.3       1 <0>        -0.4938
     41 O5          2.2611   -6.1715    2.5852 O.3       1 <0>        -0.6030
     42 O6         -2.5724   -2.4015   -1.4465 O.3       1 <0>        -0.5860
     43 O7          6.6477   -3.6717    3.2484 O.3       1 <0>        -0.6021
     44 H1          9.4717   -0.7587    4.2511 H         1 <0>         0.1412
     45 H2          6.1211   -0.9313    6.9535 H         1 <0>         0.1451
     46 H3          9.9495    1.5450    4.9932 H         1 <0>         0.1336
     47 H4          6.6019    1.3731    7.6938 H         1 <0>         0.1567
     48 H5          3.3605   -5.7937    0.1218 H         1 <0>         0.0649
     49 H6          2.4319   -5.4897   -1.3370 H         1 <0>         0.0476
     50 H7          0.3241   -5.6545   -0.1129 H         1 <0>         0.0641
     51 H8          1.3294   -7.0545    0.2691 H         1 <0>         0.0484
     52 H9          0.5754   -3.3919   -0.8000 H         1 <0>         0.0596
     53 H10         1.8977   -2.7914   -1.8003 H         1 <0>         0.0757
     54 H11         1.0807   -3.9085    3.1823 H         1 <0>         0.0782
     55 H12         0.1523   -3.7376    1.7002 H         1 <0>         0.0812
     56 H13         2.2202   -0.8626   -0.4249 H         1 <0>         0.0731
     57 H14         3.5726   -3.4842   -0.2571 H         1 <0>         0.0511
     58 H15         3.1875   -3.5701    2.0864 H         1 <0>         0.0753
     59 H16         0.2435   -6.1003    2.3075 H         1 <0>         0.0427
     60 H17        -0.8003   -1.0721    5.3268 H         1 <0>         0.0450
     61 H18         0.5656   -1.7135    6.2354 H         1 <0>         0.0406
     62 H19         0.3859   -2.1083    4.5157 H         1 <0>         0.0274
     63 H20         0.5734   -0.1347    2.7689 H         1 <0>         0.0476
     64 H21        -0.5410    0.8267    3.7565 H         1 <0>         0.0170
     65 H22         1.0580    1.4667    3.3557 H         1 <0>         0.0477
     66 H23         7.0529   -2.9572    5.9461 H         1 <0>         0.0814
     67 H24         8.4275   -2.8790    4.8639 H         1 <0>         0.0685
     68 H25        -1.2041    2.2870    0.1483 H         1 <0>         0.1016
     69 H26         0.2054    1.9349   -0.8467 H         1 <0>         0.0660
     70 H27        -1.2820    1.2733   -2.7469 H         1 <0>         0.0512
     71 H28        -2.7004    1.6751   -1.7996 H         1 <0>         0.0454
     72 H29         3.1135    0.5249    4.4229 H         1 <0>         0.0575
     73 H30         2.9989   -0.7249    5.6470 H         1 <0>         0.0743
     74 H31        -0.2991    4.3638   -0.8567 H         1 <0>         0.0662
     75 H32        -1.9307    4.0486   -1.4645 H         1 <0>         0.0622
     76 H33        -2.2157   -1.1795   -3.0567 H         1 <0>         0.0321
     77 H34        -3.6169   -0.7550   -2.0576 H         1 <0>         0.0204
     78 H35         2.3493   -2.4014    3.8315 H         1 <0>         0.0749
     79 H36         6.7364   -1.6260    3.1940 H         1 <0>         0.0719
     80 H37         0.9798    0.6574    5.6989 H         1 <0>         0.0609
     81 H38        -2.1562   -0.1031   -0.1797 H         1 <0>         0.1063
     82 H39         0.4874    3.9306   -5.3278 H         1 <0>         0.4792
     83 H40         0.1747    5.6303   -5.4893 H         1 <0>         0.4819
     84 H41        -1.1762    6.1159   -2.1579 H         1 <0>         0.4802
     85 H42        -0.7862    6.8968   -3.6632 H         1 <0>         0.4826
     86 H43         0.1607   -0.8193   -1.9192 H         1 <0>         0.3101
     87 H44         4.6569   -1.4532    2.5231 H         1 <0>         0.3087
     88 H45        -0.0489    2.8135   -3.2436 H         1 <0>         0.4846
     89 H46         8.9451    3.3971    6.0700 H         1 <0>         0.4194
     90 H47         2.7873   -5.4145    2.8873 H         1 <0>         0.4036
     91 H48        -1.7464   -2.8287   -1.7250 H         1 <0>         0.4114
     92 H49         7.4780   -4.0684    3.5588 H         1 <0>         0.3944
@<TRIPOS>BOND
     1    1    3 ar
     2    1    5 ar
     3    2    4 ar
     4    2    5 ar
     5    3    6 ar
     6    4    6 ar
     7    5   21 1
     8    6   40 1
     9    7   15 1
    10    7   34 am
    11    7   37 2
    12    8   27 1
    13    8   31 am
    14    8   38 2
    15    9   28 1
    16    9   35 am
    17    9   39 2
    18   10   32 1
    19   10   33 1
    20   10   36 1
    21   11   12 1
    22   11   16 1
    23   12   18 1
    24   13   15 1
    25   13   16 1
    26   14   17 1
    27   14   18 1
    28   15   31 1
    29   16   17 1
    30   17   31 1
    31   18   41 1
    32   19   29 1
    33   20   29 1
    34   21   28 1
    35   22   23 1
    36   22   25 1
    37   23   30 1
    38   24   27 1
    39   24   29 1
    40   25   36 1
    41   26   30 1
    42   26   42 1
    43   27   35 1
    44   28   43 1
    45   30   34 1
    46    1   44 1
    47    2   45 1
    48    3   46 1
    49    4   47 1
    50   11   48 1
    51   11   49 1
    52   12   50 1
    53   12   51 1
    54   13   52 1
    55   13   53 1
    56   14   54 1
    57   14   55 1
    58   15   56 1
    59   16   57 1
    60   17   58 1
    61   18   59 1
    62   19   60 1
    63   19   61 1
    64   19   62 1
    65   20   63 1
    66   20   64 1
    67   20   65 1
    68   21   66 1
    69   21   67 1
    70   22   68 1
    71   22   69 1
    72   23   70 1
    73   23   71 1
    74   24   72 1
    75   24   73 1
    76   25   74 1
    77   25   75 1
    78   26   76 1
    79   26   77 1
    80   27   78 1
    81   28   79 1
    82   29   80 1
    83   30   81 1
    84   32   82 1
    85   32   83 1
    86   33   84 1
    87   33   85 1
    88   34   86 1
    89   35   87 1
    90   36   88 1
    91   40   89 1
    92   41   90 1
    93   42   91 1
    94   43   92 1
@<TRIPOS>MOLECULE
1a2c_ligand_294
   92    94     0     0     0
SMALL
USER_CHARGES

mmff94s_NoEstat = 127.98
@<TRIPOS>ATOM
      1 C1          5.9138   -0.5962    6.1255 C.ar      1 <0>        -0.0708
      2 C2          7.9613   -1.8359    6.4541 C.ar      1 <0>        -0.0872
      3 C3          5.8030   -0.4139    7.5039 C.ar      1 <0>        -0.2241
      4 C4          7.8505   -1.6536    7.8326 C.ar      1 <0>        -0.1600
      5 C5          6.9915   -1.3047    5.6191 C.ar      1 <0>        -0.1356
      6 C6          6.7713   -0.9426    8.3575 C.ar      1 <0>         0.1290
      7 C7          0.1755   -1.0766    0.1327 C.2       1 <0>         0.6664
      8 C8          2.3785   -0.9757    2.2764 C.2       1 <0>         0.6651
      9 C9          4.9366   -2.7533    4.0331 C.2       1 <0>         0.6454
     10 C10        -0.9027    3.0370   -5.8579 C.cat     1 <0>         0.6349
     11 C11         2.4521   -5.3069   -0.2561 C.3       1 <0>        -0.0642
     12 C12         1.2413   -5.9691    0.3982 C.3       1 <0>        -0.0747
     13 C13         1.5734   -2.9393   -0.7647 C.3       1 <0>        -0.0873
     14 C14         1.0938   -4.1277    2.1072 C.3       1 <0>        -0.1371
     15 C15         1.5650   -1.6216    0.0133 C.3       1 <0>         0.0360
     16 C16         2.5597   -3.8106    0.0203 C.3       1 <0>        -0.0720
     17 C17         2.2934   -3.4012    1.4755 C.3       1 <0>         0.1201
     18 C18         1.1411   -5.6363    1.8853 C.3       1 <0>         0.1453
     19 C19         0.2658   -1.3152    5.2616 C.3       1 <0>        -0.0968
     20 C20         0.5109    0.5548    3.6177 C.3       1 <0>        -0.0986
     21 C21         7.1118   -1.5015    4.1267 C.3       1 <0>        -0.0191
     22 C22        -0.8155    2.0502   -2.2095 C.3       1 <0>        -0.1009
     23 C23        -1.7941    0.8762   -2.3301 C.3       1 <0>        -0.0942
     24 C24         2.5770   -0.3966    4.6867 C.3       1 <0>        -0.0988
     25 C25        -1.0015    3.0414   -3.3563 C.3       1 <0>         0.1966
     26 C26        -2.7214   -1.3050   -1.3187 C.3       1 <0>         0.1128
     27 C27         2.8496   -1.4560    3.6253 C.3       1 <0>         0.0786
     28 C28         6.4127   -2.7813    3.6567 C.3       1 <0>         0.0744
     29 C29         1.0824   -0.0766    4.8902 C.3       1 <0>        -0.0678
     30 C30        -1.7203   -0.1547   -1.1858 C.3       1 <0>         0.1065
     31 N1          2.0322   -1.9586    1.3590 N.am      1 <0>        -0.4315
     32 N2         -0.6764    2.3611   -7.0524 N.pl3     1 <0>        -0.8671
     33 N3         -1.2564    4.3814   -5.8961 N.pl3     1 <0>        -0.8581
     34 N4         -0.3878   -0.7030   -1.0725 N.am      1 <0>        -0.5687
     35 N5          4.2458   -1.7091    3.4221 N.am      1 <0>        -0.5746
     36 N6         -0.7789    2.3814   -4.6207 N.pl3     1 <0>        -0.7533
     37 O1         -0.3509   -1.0007    1.2367 O.2       1 <0>        -0.5843
     38 O2          2.3230    0.2335    2.0409 O.2       1 <0>        -0.6812
     39 O3          4.4369   -3.5674    4.8063 O.2       1 <0>        -0.5788
     40 O4          6.6640   -0.7633    9.7025 O.3       1 <0>        -0.4938
     41 O5          2.2611   -6.1715    2.5852 O.3       1 <0>        -0.6030
     42 O6         -2.4752   -2.0231   -2.5206 O.3       1 <0>        -0.5860
     43 O7          7.0137   -3.8976    4.2972 O.3       1 <0>        -0.6021
     44 H1          5.1545   -0.1808    5.4685 H         1 <0>         0.1412
     45 H2          8.8058   -2.3911    6.0540 H         1 <0>         0.1451
     46 H3          4.9602    0.1409    7.9067 H         1 <0>         0.1336
     47 H4          8.6086   -2.0672    8.4924 H         1 <0>         0.1567
     48 H5          3.3605   -5.7937    0.1218 H         1 <0>         0.0649
     49 H6          2.4319   -5.4897   -1.3370 H         1 <0>         0.0476
     50 H7          0.3241   -5.6545   -0.1129 H         1 <0>         0.0641
     51 H8          1.3294   -7.0545    0.2691 H         1 <0>         0.0484
     52 H9          0.5754   -3.3919   -0.8000 H         1 <0>         0.0596
     53 H10         1.8977   -2.7914   -1.8003 H         1 <0>         0.0757
     54 H11         1.0807   -3.9085    3.1823 H         1 <0>         0.0782
     55 H12         0.1523   -3.7376    1.7002 H         1 <0>         0.0812
     56 H13         2.2202   -0.8626   -0.4249 H         1 <0>         0.0731
     57 H14         3.5726   -3.4842   -0.2571 H         1 <0>         0.0511
     58 H15         3.1875   -3.5701    2.0864 H         1 <0>         0.0753
     59 H16         0.2435   -6.1003    2.3075 H         1 <0>         0.0427
     60 H17        -0.8003   -1.0721    5.3268 H         1 <0>         0.0450
     61 H18         0.5656   -1.7135    6.2354 H         1 <0>         0.0406
     62 H19         0.3859   -2.1083    4.5157 H         1 <0>         0.0274
     63 H20         0.5734   -0.1347    2.7689 H         1 <0>         0.0476
     64 H21        -0.5410    0.8267    3.7565 H         1 <0>         0.0170
     65 H22         1.0580    1.4667    3.3557 H         1 <0>         0.0477
     66 H23         8.1748   -1.5306    3.8520 H         1 <0>         0.0814
     67 H24         6.6981   -0.6163    3.6275 H         1 <0>         0.0685
     68 H25        -0.9672    2.5721   -1.2575 H         1 <0>         0.1016
     69 H26         0.2183    1.6845   -2.2100 H         1 <0>         0.0660
     70 H27        -1.6130    0.3584   -3.2819 H         1 <0>         0.0512
     71 H28        -2.8171    1.2691   -2.3922 H         1 <0>         0.0454
     72 H29         3.1135    0.5249    4.4229 H         1 <0>         0.0575
     73 H30         2.9989   -0.7249    5.6470 H         1 <0>         0.0743
     74 H31        -0.2967    3.8737   -3.2572 H         1 <0>         0.0662
     75 H32        -2.0142    3.4573   -3.3438 H         1 <0>         0.0622
     76 H33        -3.7565   -0.9478   -1.3308 H         1 <0>         0.0321
     77 H34        -2.6144   -2.0048   -0.4820 H         1 <0>         0.0204
     78 H35         2.3493   -2.4014    3.8315 H         1 <0>         0.0749
     79 H36         6.5048   -2.9166    2.5725 H         1 <0>         0.0719
     80 H37         0.9798    0.6574    5.6989 H         1 <0>         0.0609
     81 H38        -1.9472    0.3883   -0.2591 H         1 <0>         0.1063
     82 H39        -0.4141    1.3793   -7.0731 H         1 <0>         0.4792
     83 H40        -0.7658    2.8372   -7.9471 H         1 <0>         0.4819
     84 H41        -1.4289    4.9057   -5.0418 H         1 <0>         0.4802
     85 H42        -1.3529    4.8755   -6.7800 H         1 <0>         0.4826
     86 H43         0.1607   -0.8193   -1.9192 H         1 <0>         0.3101
     87 H44         4.7623   -1.0902    2.7952 H         1 <0>         0.3087
     88 H45        -0.5155    1.3889   -4.6505 H         1 <0>         0.4846
     89 H46         5.7300   -0.7369    9.9648 H         1 <0>         0.4194
     90 H47         2.7873   -5.4145    2.8873 H         1 <0>         0.4036
     91 H48        -2.8906   -1.5183   -3.2383 H         1 <0>         0.4114
     92 H49         7.8613   -3.5912    4.6591 H         1 <0>         0.3944
@<TRIPOS>BOND
     1    1    3 ar
     2    1    5 ar
     3    2    4 ar
     4    2    5 ar
     5    3    6 ar
     6    4    6 ar
     7    5   21 1
     8    6   40 1
     9    7   15 1
    10    7   34 am
    11    7   37 2
    12    8   27 1
    13    8   31 am
    14    8   38 2
    15    9   28 1
    16    9   35 am
    17    9   39 2
    18   10   32 1
    19   10   33 1
    20   10   36 1
    21   11   12 1
    22   11   16 1
    23   12   18 1
    24   13   15 1
    25   13   16 1
    26   14   17 1
    27   14   18 1
    28   15   31 1
    29   16   17 1
    30   17   31 1
    31   18   41 1
    32   19   29 1
    33   20   29 1
    34   21   28 1
    35   22   23 1
    36   22   25 1
    37   23   30 1
    38   24   27 1
    39   24   29 1
    40   25   36 1
    41   26   30 1
    42   26   42 1
    43   27   35 1
    44   28   43 1
    45   30   34 1
    46    1   44 1
    47    2   45 1
    48    3   46 1
    49    4   47 1
    50   11   48 1
    51   11   49 1
    52   12   50 1
    53   12   51 1
    54   13   52 1
    55   13   53 1
    56   14   54 1
    57   14   55 1
    58   15   56 1
    59   16   57 1
    60   17   58 1
    61   18   59 1
    62   19   60 1
    63   19   61 1
    64   19   62 1
    65   20   63 1
    66   20   64 1
    67   20   65 1
    68   21   66 1
    69   21   67 1
    70   22   68 1
    71   22   69 1
    72   23   70 1
    73   23   71 1
    74   24   72 1
    75   24   73 1
    76   25   74 1
    77   25   75 1
    78   26   76 1
    79   26   77 1
    80   27   78 1
    81   28   79 1
    82   29   80 1
    83   30   81 1
    84   32   82 1
    85   32   83 1
    86   33   84 1
    87   33   85 1
    88   34   86 1
    89   35   87 1
    90   36   88 1
    91   40   89 1
    92   41   90 1
    93   42   91 1
    94   43   92 1
@<TRIPOS>MOLECULE
1a2c_ligand_295
   92    94     0     0     0
SMALL
USER_CHARGES

mmff94s_NoEstat = 128.09
@<TRIPOS>ATOM
      1 C1         -6.2155   -2.4922   -0.6805 C.ar      1 <0>        -0.0708
      2 C2         -6.4716   -2.2950   -3.0747 C.ar      1 <0>        -0.0872
      3 C3         -7.3840   -1.7535   -0.4947 C.ar      1 <0>        -0.2241
      4 C4         -7.6401   -1.5563   -2.8889 C.ar      1 <0>        -0.1600
      5 C5         -5.7750   -2.7531   -1.9680 C.ar      1 <0>        -0.1356
      6 C6         -8.0964   -1.2855   -1.5989 C.ar      1 <0>         0.1290
      7 C7         -0.0512   -1.0561    0.2993 C.2       1 <0>         0.6664
      8 C8         -1.8469   -3.0457    2.1630 C.2       1 <0>         0.6651
      9 C9         -3.1350   -1.8416   -0.9503 C.2       1 <0>         0.6454
     10 C10        -4.9611    2.5287   -1.1447 C.cat     1 <0>         0.6349
     11 C11         2.5186   -3.1911    0.6823 C.3       1 <0>        -0.0642
     12 C12         2.4580   -4.6414    0.2376 C.3       1 <0>        -0.0747
     13 C13         1.4874   -1.4827    2.2418 C.3       1 <0>        -0.0873
     14 C14         0.4946   -5.0934    1.7133 C.3       1 <0>        -0.1371
     15 C15         0.0412   -1.4176    1.7503 C.3       1 <0>         0.0360
     16 C16         1.8865   -2.9529    2.0632 C.3       1 <0>        -0.0720
     17 C17         0.5665   -3.7001    2.3454 C.3       1 <0>         0.1201
     18 C18         1.0248   -5.1525    0.2868 C.3       1 <0>         0.1453
     19 C19        -3.4345   -0.1597    3.7904 C.3       1 <0>        -0.0968
     20 C20        -3.1391   -2.5257    4.5483 C.3       1 <0>        -0.0986
     21 C21        -4.5104   -3.5534   -2.1691 C.3       1 <0>        -0.0191
     22 C22        -1.2019    2.6554   -0.7648 C.3       1 <0>        -0.1009
     23 C23        -0.8794    1.4488   -1.6540 C.3       1 <0>        -0.0942
     24 C24        -4.1436   -2.0954    2.2850 C.3       1 <0>        -0.0988
     25 C25        -2.5638    3.2498   -1.1169 C.3       1 <0>         0.1966
     26 C26         1.6856    1.6412   -1.5001 C.3       1 <0>         0.1128
     27 C27        -2.8325   -2.1090    1.5076 C.3       1 <0>         0.0786
     28 C28        -3.2671   -2.6599   -2.2288 C.3       1 <0>         0.0744
     29 C29        -4.0154   -1.5731    3.7302 C.3       1 <0>        -0.0678
     30 C30         0.4555    0.7445   -1.3388 C.3       1 <0>         0.1065
     31 N1         -0.4979   -2.7598    1.9615 N.am      1 <0>        -0.4315
     32 N2         -5.9246    1.5452   -0.9464 N.pl3     1 <0>        -0.8671
     33 N3         -5.3591    3.7919   -1.5689 N.pl3     1 <0>        -0.8581
     34 N4          0.4455    0.1980   -0.0008 N.am      1 <0>        -0.5687
     35 N5         -2.9650   -2.6361    0.1813 N.am      1 <0>        -0.5746
     36 N6         -3.5989    2.2625   -0.9226 N.pl3     1 <0>        -0.7533
     37 O1         -0.5362   -1.8555   -0.4928 O.2       1 <0>        -0.5843
     38 O2         -2.2659   -3.9924    2.8322 O.2       1 <0>        -0.6812
     39 O3         -3.1903   -0.6139   -0.9436 O.2       1 <0>        -0.5788
     40 O4         -9.2375   -0.5660   -1.4176 O.3       1 <0>        -0.4938
     41 O5          0.9879   -6.5072   -0.1510 O.3       1 <0>        -0.6030
     42 O6          2.8639    0.9021   -1.2063 O.3       1 <0>        -0.5860
     43 O7         -3.3968   -1.7608   -3.3207 O.3       1 <0>        -0.6021
     44 H1         -5.6674   -2.8524    0.1858 H         1 <0>         0.1412
     45 H2         -6.1238   -2.5015   -4.0836 H         1 <0>         0.1451
     46 H3         -7.7343   -1.5460    0.5126 H         1 <0>         0.1336
     47 H4         -8.1912   -1.1952   -3.7533 H         1 <0>         0.1567
     48 H5          3.5627   -2.8549    0.7003 H         1 <0>         0.0649
     49 H6          2.0259   -2.5829   -0.0837 H         1 <0>         0.0476
     50 H7          2.8567   -4.7427   -0.7790 H         1 <0>         0.0641
     51 H8          3.1032   -5.2618    0.8729 H         1 <0>         0.0484
     52 H9          2.1569   -0.7868    1.7257 H         1 <0>         0.0596
     53 H10         1.5124   -1.2395    3.3116 H         1 <0>         0.0757
     54 H11         1.0921   -5.7802    2.3299 H         1 <0>         0.0782
     55 H12        -0.5175   -5.5090    1.7393 H         1 <0>         0.0812
     56 H13        -0.5378   -0.6778    2.3126 H         1 <0>         0.0731
     57 H14         2.6304   -3.2407    2.8169 H         1 <0>         0.0511
     58 H15         0.4523   -3.8218    3.4319 H         1 <0>         0.0753
     59 H16         0.3841   -4.5700   -0.3844 H         1 <0>         0.0427
     60 H17        -3.2863    0.1550    4.8292 H         1 <0>         0.0450
     61 H18        -4.1066    0.5680    3.3260 H         1 <0>         0.0406
     62 H19        -2.4667   -0.1061    3.2804 H         1 <0>         0.0274
     63 H20        -2.1236   -2.5806    4.1412 H         1 <0>         0.0476
     64 H21        -3.0691   -2.1929    5.5894 H         1 <0>         0.0170
     65 H22        -3.5594   -3.5370    4.5502 H         1 <0>         0.0477
     66 H23        -4.5980   -4.1387   -3.0942 H         1 <0>         0.0814
     67 H24        -4.4337   -4.2874   -1.3571 H         1 <0>         0.0685
     68 H25        -1.2036    2.3575    0.2901 H         1 <0>         0.1016
     69 H26        -0.4298    3.4262   -0.8760 H         1 <0>         0.0660
     70 H27        -0.8663    1.7736   -2.7033 H         1 <0>         0.0512
     71 H28        -1.6959    0.7195   -1.5759 H         1 <0>         0.0454
     72 H29        -4.5642   -3.1100    2.3009 H         1 <0>         0.0575
     73 H30        -4.8775   -1.4748    1.7520 H         1 <0>         0.0743
     74 H31        -2.5755    3.5811   -2.1607 H         1 <0>         0.0662
     75 H32        -2.7773    4.1198   -0.4874 H         1 <0>         0.0622
     76 H33         1.6463    2.5133   -0.8391 H         1 <0>         0.0321
     77 H34         1.7645    2.0016   -2.5321 H         1 <0>         0.0204
     78 H35        -2.3644   -1.1272    1.4485 H         1 <0>         0.0749
     79 H36        -2.3537   -3.2485   -2.3749 H         1 <0>         0.0719
     80 H37        -5.0090   -1.5561    4.1946 H         1 <0>         0.0609
     81 H38         0.5463   -0.0881   -2.0483 H         1 <0>         0.1063
     82 H39        -5.6803    0.6076   -0.6389 H         1 <0>         0.4792
     83 H40        -6.9102    1.7391   -1.1082 H         1 <0>         0.4819
     84 H41        -4.6810    4.5340   -1.7236 H         1 <0>         0.4802
     85 H42        -6.3394    4.0071   -1.7346 H         1 <0>         0.4826
     86 H43         0.8216    0.7626    0.7549 H         1 <0>         0.3101
     87 H44        -2.9331   -3.6495    0.0592 H         1 <0>         0.3087
     88 H45        -3.3608    1.3133   -0.6101 H         1 <0>         0.4846
     89 H46        -9.1777   -0.0400   -0.6042 H         1 <0>         0.4194
     90 H47         1.8515   -6.8926    0.0654 H         1 <0>         0.4036
     91 H48         2.9483    0.8828   -0.2393 H         1 <0>         0.4114
     92 H49        -4.1021   -2.1097   -3.8898 H         1 <0>         0.3944
@<TRIPOS>BOND
     1    1    3 ar
     2    1    5 ar
     3    2    4 ar
     4    2    5 ar
     5    3    6 ar
     6    4    6 ar
     7    5   21 1
     8    6   40 1
     9    7   15 1
    10    7   34 am
    11    7   37 2
    12    8   27 1
    13    8   31 am
    14    8   38 2
    15    9   28 1
    16    9   35 am
    17    9   39 2
    18   10   32 1
    19   10   33 1
    20   10   36 1
    21   11   12 1
    22   11   16 1
    23   12   18 1
    24   13   15 1
    25   13   16 1
    26   14   17 1
    27   14   18 1
    28   15   31 1
    29   16   17 1
    30   17   31 1
    31   18   41 1
    32   19   29 1
    33   20   29 1
    34   21   28 1
    35   22   23 1
    36   22   25 1
    37   23   30 1
    38   24   27 1
    39   24   29 1
    40   25   36 1
    41   26   30 1
    42   26   42 1
    43   27   35 1
    44   28   43 1
    45   30   34 1
    46    1   44 1
    47    2   45 1
    48    3   46 1
    49    4   47 1
    50   11   48 1
    51   11   49 1
    52   12   50 1
    53   12   51 1
    54   13   52 1
    55   13   53 1
    56   14   54 1
    57   14   55 1
    58   15   56 1
    59   16   57 1
    60   17   58 1
    61   18   59 1
    62   19   60 1
    63   19   61 1
    64   19   62 1
    65   20   63 1
    66   20   64 1
    67   20   65 1
    68   21   66 1
    69   21   67 1
    70   22   68 1
    71   22   69 1
    72   23   70 1
    73   23   71 1
    74   24   72 1
    75   24   73 1
    76   25   74 1
    77   25   75 1
    78   26   76 1
    79   26   77 1
    80   27   78 1
    81   28   79 1
    82   29   80 1
    83   30   81 1
    84   32   82 1
    85   32   83 1
    86   33   84 1
    87   33   85 1
    88   34   86 1
    89   35   87 1
    90   36   88 1
    91   40   89 1
    92   41   90 1
    93   42   91 1
    94   43   92 1
@<TRIPOS>MOLECULE
1a2c_ligand_296
   92    94     0     0     0
SMALL
USER_CHARGES

mmff94s_NoEstat = 128.41
@<TRIPOS>ATOM
      1 C1         -2.5136   -5.2237   -4.2232 C.ar      1 <0>        -0.0708
      2 C2         -1.1837   -3.2787   -4.7574 C.ar      1 <0>        -0.0872
      3 C3         -2.3923   -5.6682   -5.5398 C.ar      1 <0>        -0.2241
      4 C4         -1.0624   -3.7232   -6.0740 C.ar      1 <0>        -0.1600
      5 C5         -1.9076   -4.0349   -3.8497 C.ar      1 <0>        -0.1356
      6 C6         -1.6667   -4.9179   -6.4652 C.ar      1 <0>         0.1290
      7 C7         -0.0512   -1.0561    0.2993 C.2       1 <0>         0.6664
      8 C8         -1.8469   -3.0457    2.1630 C.2       1 <0>         0.6651
      9 C9         -3.1350   -1.8416   -0.9503 C.2       1 <0>         0.6454
     10 C10        -1.1899    6.6671    0.2562 C.cat     1 <0>         0.6349
     11 C11         2.5186   -3.1911    0.6823 C.3       1 <0>        -0.0642
     12 C12         2.4580   -4.6414    0.2376 C.3       1 <0>        -0.0747
     13 C13         1.4874   -1.4827    2.2418 C.3       1 <0>        -0.0873
     14 C14         0.4946   -5.0934    1.7133 C.3       1 <0>        -0.1371
     15 C15         0.0412   -1.4176    1.7503 C.3       1 <0>         0.0360
     16 C16         1.8865   -2.9529    2.0632 C.3       1 <0>        -0.0720
     17 C17         0.5665   -3.7001    2.3454 C.3       1 <0>         0.1201
     18 C18         1.0248   -5.1525    0.2868 C.3       1 <0>         0.1453
     19 C19        -3.4345   -0.1597    3.7904 C.3       1 <0>        -0.0968
     20 C20        -3.1391   -2.5257    4.5483 C.3       1 <0>        -0.0986
     21 C21        -2.0383   -3.5541   -2.4242 C.3       1 <0>        -0.0191
     22 C22         0.0133    3.1737   -0.5440 C.3       1 <0>        -0.1009
     23 C23        -0.4337    2.0012   -1.4250 C.3       1 <0>        -0.0942
     24 C24        -4.1436   -2.0954    2.2850 C.3       1 <0>        -0.0988
     25 C25        -0.9571    4.3475   -0.6564 C.3       1 <0>         0.1966
     26 C26         1.9058    0.9774   -1.7696 C.3       1 <0>         0.1128
     27 C27        -2.8325   -2.1090    1.5076 C.3       1 <0>         0.0786
     28 C28        -3.2671   -2.6599   -2.2288 C.3       1 <0>         0.0744
     29 C29        -4.0154   -1.5731    3.7302 C.3       1 <0>        -0.0678
     30 C30         0.4555    0.7445   -1.3388 C.3       1 <0>         0.1065
     31 N1         -0.4979   -2.7598    1.9615 N.am      1 <0>        -0.4315
     32 N2         -0.7222    7.6923    1.0718 N.pl3     1 <0>        -0.8671
     33 N3         -2.3492    6.8663   -0.4857 N.pl3     1 <0>        -0.8581
     34 N4          0.4455    0.1980   -0.0008 N.am      1 <0>        -0.5687
     35 N5         -2.9650   -2.6361    0.1813 N.am      1 <0>        -0.5746
     36 N6         -0.5089    5.4402    0.1737 N.pl3     1 <0>        -0.7533
     37 O1         -0.5362   -1.8555   -0.4928 O.2       1 <0>        -0.5843
     38 O2         -2.2659   -3.9924    2.8322 O.2       1 <0>        -0.6812
     39 O3         -3.1903   -0.6139   -0.9436 O.2       1 <0>        -0.5788
     40 O4         -1.5470   -5.3525   -7.7495 O.3       1 <0>        -0.4938
     41 O5          0.9879   -6.5072   -0.1510 O.3       1 <0>        -0.6030
     42 O6          2.6391   -0.2366   -1.6731 O.3       1 <0>        -0.5860
     43 O7         -4.4213   -3.4798   -2.1146 O.3       1 <0>        -0.6021
     44 H1         -3.0809   -5.8148   -3.5095 H         1 <0>         0.1412
     45 H2         -0.7092   -2.3466   -4.4614 H         1 <0>         0.1451
     46 H3         -2.8652   -6.5996   -5.8383 H         1 <0>         0.1336
     47 H4         -0.4950   -3.1347   -6.7902 H         1 <0>         0.1567
     48 H5          3.5627   -2.8549    0.7003 H         1 <0>         0.0649
     49 H6          2.0259   -2.5829   -0.0837 H         1 <0>         0.0476
     50 H7          2.8567   -4.7427   -0.7790 H         1 <0>         0.0641
     51 H8          3.1032   -5.2618    0.8729 H         1 <0>         0.0484
     52 H9          2.1569   -0.7868    1.7257 H         1 <0>         0.0596
     53 H10         1.5124   -1.2395    3.3116 H         1 <0>         0.0757
     54 H11         1.0921   -5.7802    2.3299 H         1 <0>         0.0782
     55 H12        -0.5175   -5.5090    1.7393 H         1 <0>         0.0812
     56 H13        -0.5378   -0.6778    2.3126 H         1 <0>         0.0731
     57 H14         2.6304   -3.2407    2.8169 H         1 <0>         0.0511
     58 H15         0.4523   -3.8218    3.4319 H         1 <0>         0.0753
     59 H16         0.3841   -4.5700   -0.3844 H         1 <0>         0.0427
     60 H17        -3.2863    0.1550    4.8292 H         1 <0>         0.0450
     61 H18        -4.1066    0.5680    3.3260 H         1 <0>         0.0406
     62 H19        -2.4667   -0.1061    3.2804 H         1 <0>         0.0274
     63 H20        -2.1236   -2.5806    4.1412 H         1 <0>         0.0476
     64 H21        -3.0691   -2.1929    5.5894 H         1 <0>         0.0170
     65 H22        -3.5594   -3.5370    4.5502 H         1 <0>         0.0477
     66 H23        -1.1274   -3.0087   -2.1432 H         1 <0>         0.0814
     67 H24        -2.0766   -4.4314   -1.7662 H         1 <0>         0.0685
     68 H25         0.0724    2.8576    0.5040 H         1 <0>         0.1016
     69 H26         1.0181    3.5045   -0.8331 H         1 <0>         0.0660
     70 H27        -0.4694    2.3356   -2.4708 H         1 <0>         0.0512
     71 H28        -1.4639    1.7294   -1.1616 H         1 <0>         0.0454
     72 H29        -4.5642   -3.1100    2.3009 H         1 <0>         0.0575
     73 H30        -4.8775   -1.4748    1.7520 H         1 <0>         0.0743
     74 H31        -1.9599    4.0433   -0.3383 H         1 <0>         0.0662
     75 H32        -1.0251    4.6914   -1.6936 H         1 <0>         0.0622
     76 H33         2.4001    1.7344   -1.1517 H         1 <0>         0.0321
     77 H34         1.9468    1.3120   -2.8125 H         1 <0>         0.0204
     78 H35        -2.3644   -1.1272    1.4485 H         1 <0>         0.0749
     79 H36        -3.4108   -1.9804   -3.0773 H         1 <0>         0.0719
     80 H37        -5.0090   -1.5561    4.1946 H         1 <0>         0.0609
     81 H38         0.0149    0.0012   -2.0158 H         1 <0>         0.1063
     82 H39         0.1191    7.5912    1.6332 H         1 <0>         0.4792
     83 H40        -1.2165    8.5796    1.1310 H         1 <0>         0.4819
     84 H41        -2.7189    6.1381   -1.0919 H         1 <0>         0.4802
     85 H42        -2.8574    7.7464   -0.4423 H         1 <0>         0.4826
     86 H43         0.8216    0.7626    0.7549 H         1 <0>         0.3101
     87 H44        -2.9331   -3.6495    0.0592 H         1 <0>         0.3087
     88 H45         0.3414    5.3470    0.7425 H         1 <0>         0.4846
     89 H46        -2.3449   -5.8361   -8.0167 H         1 <0>         0.4194
     90 H47         1.8515   -6.8926    0.0654 H         1 <0>         0.4036
     91 H48         2.8853   -0.3414   -0.7399 H         1 <0>         0.4114
     92 H49        -4.1742   -4.3600   -2.4420 H         1 <0>         0.3944
@<TRIPOS>BOND
     1    1    3 ar
     2    1    5 ar
     3    2    4 ar
     4    2    5 ar
     5    3    6 ar
     6    4    6 ar
     7    5   21 1
     8    6   40 1
     9    7   15 1
    10    7   34 am
    11    7   37 2
    12    8   27 1
    13    8   31 am
    14    8   38 2
    15    9   28 1
    16    9   35 am
    17    9   39 2
    18   10   32 1
    19   10   33 1
    20   10   36 1
    21   11   12 1
    22   11   16 1
    23   12   18 1
    24   13   15 1
    25   13   16 1
    26   14   17 1
    27   14   18 1
    28   15   31 1
    29   16   17 1
    30   17   31 1
    31   18   41 1
    32   19   29 1
    33   20   29 1
    34   21   28 1
    35   22   23 1
    36   22   25 1
    37   23   30 1
    38   24   27 1
    39   24   29 1
    40   25   36 1
    41   26   30 1
    42   26   42 1
    43   27   35 1
    44   28   43 1
    45   30   34 1
    46    1   44 1
    47    2   45 1
    48    3   46 1
    49    4   47 1
    50   11   48 1
    51   11   49 1
    52   12   50 1
    53   12   51 1
    54   13   52 1
    55   13   53 1
    56   14   54 1
    57   14   55 1
    58   15   56 1
    59   16   57 1
    60   17   58 1
    61   18   59 1
    62   19   60 1
    63   19   61 1
    64   19   62 1
    65   20   63 1
    66   20   64 1
    67   20   65 1
    68   21   66 1
    69   21   67 1
    70   22   68 1
    71   22   69 1
    72   23   70 1
    73   23   71 1
    74   24   72 1
    75   24   73 1
    76   25   74 1
    77   25   75 1
    78   26   76 1
    79   26   77 1
    80   27   78 1
    81   28   79 1
    82   29   80 1
    83   30   81 1
    84   32   82 1
    85   32   83 1
    86   33   84 1
    87   33   85 1
    88   34   86 1
    89   35   87 1
    90   36   88 1
    91   40   89 1
    92   41   90 1
    93   42   91 1
    94   43   92 1
@<TRIPOS>MOLECULE
1a2c_ligand_297
   92    94     0     0     0
SMALL
USER_CHARGES

mmff94s_NoEstat = 128.59
@<TRIPOS>ATOM
      1 C1          5.9865    0.6647    5.0542 C.ar      1 <0>        -0.0708
      2 C2          8.1593   -0.1549    5.7206 C.ar      1 <0>        -0.0872
      3 C3          5.9555    1.4940    6.1753 C.ar      1 <0>        -0.2241
      4 C4          8.1283    0.6744    6.8418 C.ar      1 <0>        -0.1600
      5 C5          7.0880   -0.1486    4.8419 C.ar      1 <0>        -0.1356
      6 C6          7.0264    1.4988    7.0692 C.ar      1 <0>         0.1290
      7 C7          0.1755   -1.0766    0.1327 C.2       1 <0>         0.6664
      8 C8          2.3785   -0.9757    2.2764 C.2       1 <0>         0.6651
      9 C9          5.0726   -2.2851    4.3841 C.2       1 <0>         0.6454
     10 C10        -2.6284    5.4301   -1.9251 C.cat     1 <0>         0.6349
     11 C11         2.4521   -5.3069   -0.2561 C.3       1 <0>        -0.0642
     12 C12         1.2413   -5.9691    0.3982 C.3       1 <0>        -0.0747
     13 C13         1.5734   -2.9393   -0.7647 C.3       1 <0>        -0.0873
     14 C14         1.0938   -4.1277    2.1072 C.3       1 <0>        -0.1371
     15 C15         1.5650   -1.6216    0.0133 C.3       1 <0>         0.0360
     16 C16         2.5597   -3.8106    0.0203 C.3       1 <0>        -0.0720
     17 C17         2.2934   -3.4012    1.4755 C.3       1 <0>         0.1201
     18 C18         1.1411   -5.6363    1.8853 C.3       1 <0>         0.1453
     19 C19         0.2658   -1.3152    5.2616 C.3       1 <0>        -0.0968
     20 C20         0.5109    0.5548    3.6177 C.3       1 <0>        -0.0986
     21 C21         7.1218   -1.0458    3.6277 C.3       1 <0>        -0.0191
     22 C22        -0.8392    2.2664   -0.8852 C.3       1 <0>        -0.1009
     23 C23        -1.6754    1.2905   -1.7214 C.3       1 <0>        -0.0942
     24 C24         2.5770   -0.3966    4.6867 C.3       1 <0>        -0.0988
     25 C25        -0.9003    3.6784   -1.4634 C.3       1 <0>         0.1966
     26 C26        -2.5783   -1.1036   -2.0263 C.3       1 <0>         0.1128
     27 C27         2.8496   -1.4560    3.6253 C.3       1 <0>         0.0786
     28 C28         6.5149   -2.4235    3.9131 C.3       1 <0>         0.0744
     29 C29         1.0824   -0.0766    4.8902 C.3       1 <0>        -0.0678
     30 C30        -1.7203   -0.1547   -1.1858 C.3       1 <0>         0.1065
     31 N1          2.0322   -1.9586    1.3590 N.am      1 <0>        -0.4315
     32 N2         -3.9568    5.8427   -1.9149 N.pl3     1 <0>        -0.8671
     33 N3         -1.6515    6.3017   -2.3941 N.pl3     1 <0>        -0.8581
     34 N4         -0.3878   -0.7030   -1.0725 N.am      1 <0>        -0.5687
     35 N5          4.2458   -1.7091    3.4221 N.am      1 <0>        -0.5746
     36 N6         -2.2644    4.1511   -1.4699 N.pl3     1 <0>        -0.7533
     37 O1         -0.3509   -1.0007    1.2367 O.2       1 <0>        -0.5843
     38 O2          2.3230    0.2335    2.0409 O.2       1 <0>        -0.6812
     39 O3          4.7067   -2.6383    5.5030 O.2       1 <0>        -0.5788
     40 O4          6.9968    2.3093    8.1623 O.3       1 <0>        -0.4938
     41 O5          2.2611   -6.1715    2.5852 O.3       1 <0>        -0.6030
     42 O6         -2.5724   -2.4015   -1.4465 O.3       1 <0>        -0.5860
     43 O7          7.2613   -3.0520    4.9452 O.3       1 <0>        -0.6021
     44 H1          5.1475    0.6678    4.3637 H         1 <0>         0.1412
     45 H2          9.0222   -0.7938    5.5513 H         1 <0>         0.1451
     46 H3          5.0945    2.1340    6.3469 H         1 <0>         0.1336
     47 H4          8.9661    0.6743    7.5340 H         1 <0>         0.1567
     48 H5          3.3605   -5.7937    0.1218 H         1 <0>         0.0649
     49 H6          2.4319   -5.4897   -1.3370 H         1 <0>         0.0476
     50 H7          0.3241   -5.6545   -0.1129 H         1 <0>         0.0641
     51 H8          1.3294   -7.0545    0.2691 H         1 <0>         0.0484
     52 H9          0.5754   -3.3919   -0.8000 H         1 <0>         0.0596
     53 H10         1.8977   -2.7914   -1.8003 H         1 <0>         0.0757
     54 H11         1.0807   -3.9085    3.1823 H         1 <0>         0.0782
     55 H12         0.1523   -3.7376    1.7002 H         1 <0>         0.0812
     56 H13         2.2202   -0.8626   -0.4249 H         1 <0>         0.0731
     57 H14         3.5726   -3.4842   -0.2571 H         1 <0>         0.0511
     58 H15         3.1875   -3.5701    2.0864 H         1 <0>         0.0753
     59 H16         0.2435   -6.1003    2.3075 H         1 <0>         0.0427
     60 H17        -0.8003   -1.0721    5.3268 H         1 <0>         0.0450
     61 H18         0.5656   -1.7135    6.2354 H         1 <0>         0.0406
     62 H19         0.3859   -2.1083    4.5157 H         1 <0>         0.0274
     63 H20         0.5734   -0.1347    2.7689 H         1 <0>         0.0476
     64 H21        -0.5410    0.8267    3.7565 H         1 <0>         0.0170
     65 H22         1.0580    1.4667    3.3557 H         1 <0>         0.0477
     66 H23         8.1610   -1.1550    3.2896 H         1 <0>         0.0814
     67 H24         6.5929   -0.5401    2.8101 H         1 <0>         0.0685
     68 H25        -1.2041    2.2870    0.1483 H         1 <0>         0.1016
     69 H26         0.2054    1.9349   -0.8467 H         1 <0>         0.0660
     70 H27        -1.2820    1.2733   -2.7469 H         1 <0>         0.0512
     71 H28        -2.7004    1.6751   -1.7996 H         1 <0>         0.0454
     72 H29         3.1135    0.5249    4.4229 H         1 <0>         0.0575
     73 H30         2.9989   -0.7249    5.6470 H         1 <0>         0.0743
     74 H31        -0.5130    3.6867   -2.4878 H         1 <0>         0.0662
     75 H32        -0.2876    4.3637   -0.8686 H         1 <0>         0.0622
     76 H33        -2.2157   -1.1795   -3.0567 H         1 <0>         0.0321
     77 H34        -3.6169   -0.7550   -2.0576 H         1 <0>         0.0204
     78 H35         2.3493   -2.4014    3.8315 H         1 <0>         0.0749
     79 H36         6.5434   -3.0684    3.0268 H         1 <0>         0.0719
     80 H37         0.9798    0.6574    5.6989 H         1 <0>         0.0609
     81 H38        -2.1562   -0.1031   -0.1797 H         1 <0>         0.1063
     82 H39        -4.7045    5.2392   -1.5832 H         1 <0>         0.4792
     83 H40        -4.2189    6.7685   -2.2453 H         1 <0>         0.4819
     84 H41        -0.6709    6.0323   -2.4155 H         1 <0>         0.4802
     85 H42        -1.8920    7.2322   -2.7271 H         1 <0>         0.4826
     86 H43         0.1607   -0.8193   -1.9192 H         1 <0>         0.3101
     87 H44         4.6569   -1.4532    2.5231 H         1 <0>         0.3087
     88 H45        -3.0256    3.5484   -1.1344 H         1 <0>         0.4846
     89 H46         6.0851    2.4162    8.4771 H         1 <0>         0.4194
     90 H47         2.7873   -5.4145    2.8873 H         1 <0>         0.4036
     91 H48        -1.7464   -2.8287   -1.7250 H         1 <0>         0.4114
     92 H49         8.0995   -2.5674    5.0209 H         1 <0>         0.3944
@<TRIPOS>BOND
     1    1    3 ar
     2    1    5 ar
     3    2    4 ar
     4    2    5 ar
     5    3    6 ar
     6    4    6 ar
     7    5   21 1
     8    6   40 1
     9    7   15 1
    10    7   34 am
    11    7   37 2
    12    8   27 1
    13    8   31 am
    14    8   38 2
    15    9   28 1
    16    9   35 am
    17    9   39 2
    18   10   32 1
    19   10   33 1
    20   10   36 1
    21   11   12 1
    22   11   16 1
    23   12   18 1
    24   13   15 1
    25   13   16 1
    26   14   17 1
    27   14   18 1
    28   15   31 1
    29   16   17 1
    30   17   31 1
    31   18   41 1
    32   19   29 1
    33   20   29 1
    34   21   28 1
    35   22   23 1
    36   22   25 1
    37   23   30 1
    38   24   27 1
    39   24   29 1
    40   25   36 1
    41   26   30 1
    42   26   42 1
    43   27   35 1
    44   28   43 1
    45   30   34 1
    46    1   44 1
    47    2   45 1
    48    3   46 1
    49    4   47 1
    50   11   48 1
    51   11   49 1
    52   12   50 1
    53   12   51 1
    54   13   52 1
    55   13   53 1
    56   14   54 1
    57   14   55 1
    58   15   56 1
    59   16   57 1
    60   17   58 1
    61   18   59 1
    62   19   60 1
    63   19   61 1
    64   19   62 1
    65   20   63 1
    66   20   64 1
    67   20   65 1
    68   21   66 1
    69   21   67 1
    70   22   68 1
    71   22   69 1
    72   23   70 1
    73   23   71 1
    74   24   72 1
    75   24   73 1
    76   25   74 1
    77   25   75 1
    78   26   76 1
    79   26   77 1
    80   27   78 1
    81   28   79 1
    82   29   80 1
    83   30   81 1
    84   32   82 1
    85   32   83 1
    86   33   84 1
    87   33   85 1
    88   34   86 1
    89   35   87 1
    90   36   88 1
    91   40   89 1
    92   41   90 1
    93   42   91 1
    94   43   92 1
@<TRIPOS>MOLECULE
1a2c_ligand_298
   92    94     0     0     0
SMALL
USER_CHARGES

mmff94s_NoEstat = 128.64
@<TRIPOS>ATOM
      1 C1         -7.9932   -1.0210   -1.1999 C.ar      1 <0>        -0.0708
      2 C2         -5.8259   -0.0100   -1.5432 C.ar      1 <0>        -0.0872
      3 C3         -8.5676    0.2459   -1.0959 C.ar      1 <0>        -0.2241
      4 C4         -6.4004    1.2568   -1.4392 C.ar      1 <0>        -0.1600
      5 C5         -6.6301   -1.1319   -1.4222 C.ar      1 <0>        -0.1356
      6 C6         -7.7712    1.3848   -1.2155 C.ar      1 <0>         0.1290
      7 C7         -0.0512   -1.0561    0.2993 C.2       1 <0>         0.6664
      8 C8         -1.8469   -3.0457    2.1630 C.2       1 <0>         0.6651
      9 C9         -4.1811   -2.4610    0.1870 C.2       1 <0>         0.6454
     10 C10         0.7040   -0.8831   -4.8107 C.cat     1 <0>         0.6349
     11 C11         2.5186   -3.1911    0.6823 C.3       1 <0>        -0.0642
     12 C12         2.4580   -4.6414    0.2376 C.3       1 <0>        -0.0747
     13 C13         1.4874   -1.4827    2.2418 C.3       1 <0>        -0.0873
     14 C14         0.4946   -5.0934    1.7133 C.3       1 <0>        -0.1371
     15 C15         0.0412   -1.4176    1.7503 C.3       1 <0>         0.0360
     16 C16         1.8865   -2.9529    2.0632 C.3       1 <0>        -0.0720
     17 C17         0.5665   -3.7001    2.3454 C.3       1 <0>         0.1201
     18 C18         1.0248   -5.1525    0.2868 C.3       1 <0>         0.1453
     19 C19        -5.3726   -0.5418    3.1302 C.3       1 <0>        -0.0968
     20 C20        -3.4397    1.0389    2.9738 C.3       1 <0>        -0.0986
     21 C21        -6.0083   -2.5034   -1.5355 C.3       1 <0>        -0.0191
     22 C22        -0.9951    2.0137   -3.0747 C.3       1 <0>        -0.1009
     23 C23        -0.8794    1.4488   -1.6540 C.3       1 <0>        -0.0942
     24 C24        -2.9973   -1.3585    3.5851 C.3       1 <0>        -0.0988
     25 C25        -0.9093    0.9015   -4.1176 C.3       1 <0>         0.1966
     26 C26         1.6856    1.6412   -1.5001 C.3       1 <0>         0.1128
     27 C27        -2.7865   -1.8644    2.1628 C.3       1 <0>         0.0786
     28 C28        -5.5432   -3.0384   -0.1771 C.3       1 <0>         0.0744
     29 C29        -3.9969   -0.1898    3.6979 C.3       1 <0>        -0.0678
     30 C30         0.4555    0.7445   -1.3388 C.3       1 <0>         0.1065
     31 N1         -0.4979   -2.7598    1.9615 N.am      1 <0>        -0.4315
     32 N2          1.9309   -1.5211   -4.6602 N.pl3     1 <0>        -0.8671
     33 N3         -0.1810   -1.3363   -5.7830 N.pl3     1 <0>        -0.8581
     34 N4          0.4455    0.1980   -0.0008 N.am      1 <0>        -0.5687
     35 N5         -3.9799   -2.3853    1.5634 N.am      1 <0>        -0.5746
     36 N6          0.3506    0.2071   -3.9968 N.pl3     1 <0>        -0.7533
     37 O1         -0.5362   -1.8555   -0.4928 O.2       1 <0>        -0.5843
     38 O2         -2.2998   -4.1783    2.3409 O.2       1 <0>        -0.6812
     39 O3         -3.3708   -2.0954   -0.6616 O.2       1 <0>        -0.5788
     40 O4         -8.3321    2.6210   -1.1157 O.3       1 <0>        -0.4938
     41 O5          0.9879   -6.5072   -0.1510 O.3       1 <0>        -0.6030
     42 O6          1.5971    2.7470   -0.6113 O.3       1 <0>        -0.5860
     43 O7         -5.4208   -4.4514   -0.2549 O.3       1 <0>        -0.6021
     44 H1         -8.6216   -1.9023   -1.1052 H         1 <0>         0.1412
     45 H2         -4.7569   -0.1001   -1.7178 H         1 <0>         0.1451
     46 H3         -9.6360    0.3389   -0.9219 H         1 <0>         0.1336
     47 H4         -5.7747    2.1405   -1.5342 H         1 <0>         0.1567
     48 H5          3.5627   -2.8549    0.7003 H         1 <0>         0.0649
     49 H6          2.0259   -2.5829   -0.0837 H         1 <0>         0.0476
     50 H7          2.8567   -4.7427   -0.7790 H         1 <0>         0.0641
     51 H8          3.1032   -5.2618    0.8729 H         1 <0>         0.0484
     52 H9          2.1569   -0.7868    1.7257 H         1 <0>         0.0596
     53 H10         1.5124   -1.2395    3.3116 H         1 <0>         0.0757
     54 H11         1.0921   -5.7802    2.3299 H         1 <0>         0.0782
     55 H12        -0.5175   -5.5090    1.7393 H         1 <0>         0.0812
     56 H13        -0.5378   -0.6778    2.3126 H         1 <0>         0.0731
     57 H14         2.6304   -3.2407    2.8169 H         1 <0>         0.0511
     58 H15         0.4523   -3.8218    3.4319 H         1 <0>         0.0753
     59 H16         0.3841   -4.5700   -0.3844 H         1 <0>         0.0427
     60 H17        -6.0375    0.3284    3.1563 H         1 <0>         0.0450
     61 H18        -5.8542   -1.3328    3.7128 H         1 <0>         0.0406
     62 H19        -5.2988   -0.8789    2.0908 H         1 <0>         0.0274
     63 H20        -3.3028    0.8425    1.9049 H         1 <0>         0.0476
     64 H21        -4.1178    1.8926    3.0773 H         1 <0>         0.0170
     65 H22        -2.4708    1.3315    3.3922 H         1 <0>         0.0477
     66 H23        -5.1607   -2.4579   -2.2324 H         1 <0>         0.0814
     67 H24        -6.7403   -3.1770   -1.9985 H         1 <0>         0.0685
     68 H25        -1.9473    2.5434   -3.1941 H         1 <0>         0.1016
     69 H26        -0.1993    2.7456   -3.2583 H         1 <0>         0.0660
     70 H27        -1.7000    0.7382   -1.4859 H         1 <0>         0.0512
     71 H28        -1.0340    2.2618   -0.9330 H         1 <0>         0.0454
     72 H29        -2.0302   -1.0518    4.0061 H         1 <0>         0.0575
     73 H30        -3.3514   -2.1846    4.2177 H         1 <0>         0.0743
     74 H31        -0.9933    1.3193   -5.1264 H         1 <0>         0.0662
     75 H32        -1.7263    0.1851   -3.9830 H         1 <0>         0.0622
     76 H33         1.7842    2.0214   -2.5223 H         1 <0>         0.0321
     77 H34         2.5988    1.0866   -1.2555 H         1 <0>         0.0204
     78 H35        -2.3647   -1.1082    1.5019 H         1 <0>         0.0749
     79 H36        -6.2595   -2.7988    0.6177 H         1 <0>         0.0719
     80 H37        -4.1195    0.0762    4.7551 H         1 <0>         0.0609
     81 H38         0.5463   -0.0881   -2.0483 H         1 <0>         0.1063
     82 H39         2.6098   -1.2234   -3.9646 H         1 <0>         0.4792
     83 H40         2.1856   -2.3097   -5.2504 H         1 <0>         0.4819
     84 H41        -1.0861   -0.8929   -5.9199 H         1 <0>         0.4802
     85 H42         0.0534   -2.1241   -6.3822 H         1 <0>         0.4826
     86 H43         0.8216    0.7626    0.7549 H         1 <0>         0.3101
     87 H44        -4.7231   -2.7191    2.1790 H         1 <0>         0.3087
     88 H45         1.0413    0.5002   -3.2952 H         1 <0>         0.4846
     89 H46        -9.0832    2.6009   -0.5014 H         1 <0>         0.4194
     90 H47         1.8515   -6.8926    0.0654 H         1 <0>         0.4036
     91 H48         1.0115    3.3975   -1.0313 H         1 <0>         0.4114
     92 H49        -5.9013   -4.7317   -1.0509 H         1 <0>         0.3944
@<TRIPOS>BOND
     1    1    3 ar
     2    1    5 ar
     3    2    4 ar
     4    2    5 ar
     5    3    6 ar
     6    4    6 ar
     7    5   21 1
     8    6   40 1
     9    7   15 1
    10    7   34 am
    11    7   37 2
    12    8   27 1
    13    8   31 am
    14    8   38 2
    15    9   28 1
    16    9   35 am
    17    9   39 2
    18   10   32 1
    19   10   33 1
    20   10   36 1
    21   11   12 1
    22   11   16 1
    23   12   18 1
    24   13   15 1
    25   13   16 1
    26   14   17 1
    27   14   18 1
    28   15   31 1
    29   16   17 1
    30   17   31 1
    31   18   41 1
    32   19   29 1
    33   20   29 1
    34   21   28 1
    35   22   23 1
    36   22   25 1
    37   23   30 1
    38   24   27 1
    39   24   29 1
    40   25   36 1
    41   26   30 1
    42   26   42 1
    43   27   35 1
    44   28   43 1
    45   30   34 1
    46    1   44 1
    47    2   45 1
    48    3   46 1
    49    4   47 1
    50   11   48 1
    51   11   49 1
    52   12   50 1
    53   12   51 1
    54   13   52 1
    55   13   53 1
    56   14   54 1
    57   14   55 1
    58   15   56 1
    59   16   57 1
    60   17   58 1
    61   18   59 1
    62   19   60 1
    63   19   61 1
    64   19   62 1
    65   20   63 1
    66   20   64 1
    67   20   65 1
    68   21   66 1
    69   21   67 1
    70   22   68 1
    71   22   69 1
    72   23   70 1
    73   23   71 1
    74   24   72 1
    75   24   73 1
    76   25   74 1
    77   25   75 1
    78   26   76 1
    79   26   77 1
    80   27   78 1
    81   28   79 1
    82   29   80 1
    83   30   81 1
    84   32   82 1
    85   32   83 1
    86   33   84 1
    87   33   85 1
    88   34   86 1
    89   35   87 1
    90   36   88 1
    91   40   89 1
    92   41   90 1
    93   42   91 1
    94   43   92 1
@<TRIPOS>MOLECULE
1a2c_ligand_299
   92    94     0     0     0
SMALL
USER_CHARGES

mmff94s_NoEstat = 128.78
@<TRIPOS>ATOM
      1 C1         -7.9689   -3.8418   -2.3194 C.ar      1 <0>        -0.0708
      2 C2         -8.3571   -1.6716   -1.3311 C.ar      1 <0>        -0.0872
      3 C3         -9.3420   -4.0030   -2.5045 C.ar      1 <0>        -0.2241
      4 C4         -9.7301   -1.8328   -1.5162 C.ar      1 <0>        -0.1600
      5 C5         -7.4949   -2.6782   -1.7352 C.ar      1 <0>        -0.1356
      6 C6        -10.2227   -2.9986   -2.1029 C.ar      1 <0>         0.1290
      7 C7         -0.0512   -1.0561    0.2993 C.2       1 <0>         0.6664
      8 C8         -1.8469   -3.0457    2.1630 C.2       1 <0>         0.6651
      9 C9         -4.1811   -2.4610    0.1870 C.2       1 <0>         0.6454
     10 C10        -1.8531    0.2441   -4.3694 C.cat     1 <0>         0.6349
     11 C11         2.5186   -3.1911    0.6823 C.3       1 <0>        -0.0642
     12 C12         2.4580   -4.6414    0.2376 C.3       1 <0>        -0.0747
     13 C13         1.4874   -1.4827    2.2418 C.3       1 <0>        -0.0873
     14 C14         0.4946   -5.0934    1.7133 C.3       1 <0>        -0.1371
     15 C15         0.0412   -1.4176    1.7503 C.3       1 <0>         0.0360
     16 C16         1.8865   -2.9529    2.0632 C.3       1 <0>        -0.0720
     17 C17         0.5665   -3.7001    2.3454 C.3       1 <0>         0.1201
     18 C18         1.0248   -5.1525    0.2868 C.3       1 <0>         0.1453
     19 C19        -5.3726   -0.5418    3.1302 C.3       1 <0>        -0.0968
     20 C20        -3.4397    1.0389    2.9738 C.3       1 <0>        -0.0986
     21 C21        -6.0083   -2.5034   -1.5355 C.3       1 <0>        -0.0191
     22 C22         0.1864    2.9452   -2.6852 C.3       1 <0>        -0.1009
     23 C23         0.2513    2.2726   -1.3090 C.3       1 <0>        -0.0942
     24 C24        -2.9973   -1.3585    3.5851 C.3       1 <0>        -0.0988
     25 C25        -1.0020    2.4297   -3.4939 C.3       1 <0>         0.1966
     26 C26         1.7383    0.3016   -2.0469 C.3       1 <0>         0.1128
     27 C27        -2.7865   -1.8644    2.1628 C.3       1 <0>         0.0786
     28 C28        -5.5432   -3.0384   -0.1771 C.3       1 <0>         0.0744
     29 C29        -3.9969   -0.1898    3.6979 C.3       1 <0>        -0.0678
     30 C30         0.4555    0.7445   -1.3388 C.3       1 <0>         0.1065
     31 N1         -0.4979   -2.7598    1.9615 N.am      1 <0>        -0.4315
     32 N2         -1.7031   -1.1298   -4.5276 N.pl3     1 <0>        -0.8671
     33 N3         -2.9749    0.8694   -4.9028 N.pl3     1 <0>        -0.8581
     34 N4          0.4455    0.1980   -0.0008 N.am      1 <0>        -0.5687
     35 N5         -3.9799   -2.3853    1.5634 N.am      1 <0>        -0.5746
     36 N6         -0.8905    1.0026   -3.6811 N.pl3     1 <0>        -0.7533
     37 O1         -0.5362   -1.8555   -0.4928 O.2       1 <0>        -0.5843
     38 O2         -2.2998   -4.1783    2.3409 O.2       1 <0>        -0.6812
     39 O3         -3.3708   -2.0954   -0.6616 O.2       1 <0>        -0.5788
     40 O4        -11.5624   -3.1552   -2.2851 O.3       1 <0>        -0.4938
     41 O5          0.9879   -6.5072   -0.1510 O.3       1 <0>        -0.6030
     42 O6          2.8703    0.8436   -1.3793 O.3       1 <0>        -0.5860
     43 O7         -5.4208   -4.4514   -0.2549 O.3       1 <0>        -0.6021
     44 H1         -7.2907   -4.6298   -2.6353 H         1 <0>         0.1412
     45 H2         -7.9823   -0.7598   -0.8733 H         1 <0>         0.1451
     46 H3         -9.7194   -4.9132   -2.9622 H         1 <0>         0.1336
     47 H4        -10.4112   -1.0463   -1.2021 H         1 <0>         0.1567
     48 H5          3.5627   -2.8549    0.7003 H         1 <0>         0.0649
     49 H6          2.0259   -2.5829   -0.0837 H         1 <0>         0.0476
     50 H7          2.8567   -4.7427   -0.7790 H         1 <0>         0.0641
     51 H8          3.1032   -5.2618    0.8729 H         1 <0>         0.0484
     52 H9          2.1569   -0.7868    1.7257 H         1 <0>         0.0596
     53 H10         1.5124   -1.2395    3.3116 H         1 <0>         0.0757
     54 H11         1.0921   -5.7802    2.3299 H         1 <0>         0.0782
     55 H12        -0.5175   -5.5090    1.7393 H         1 <0>         0.0812
     56 H13        -0.5378   -0.6778    2.3126 H         1 <0>         0.0731
     57 H14         2.6304   -3.2407    2.8169 H         1 <0>         0.0511
     58 H15         0.4523   -3.8218    3.4319 H         1 <0>         0.0753
     59 H16         0.3841   -4.5700   -0.3844 H         1 <0>         0.0427
     60 H17        -6.0375    0.3284    3.1563 H         1 <0>         0.0450
     61 H18        -5.8542   -1.3328    3.7128 H         1 <0>         0.0406
     62 H19        -5.2988   -0.8789    2.0908 H         1 <0>         0.0274
     63 H20        -3.3028    0.8425    1.9049 H         1 <0>         0.0476
     64 H21        -4.1178    1.8926    3.0773 H         1 <0>         0.0170
     65 H22        -2.4708    1.3315    3.3922 H         1 <0>         0.0477
     66 H23        -5.7555   -1.4385   -1.6272 H         1 <0>         0.0814
     67 H24        -5.4878   -3.0064   -2.3601 H         1 <0>         0.0685
     68 H25         0.0968    4.0317   -2.5708 H         1 <0>         0.1016
     69 H26         1.1124    2.7598   -3.2426 H         1 <0>         0.0660
     70 H27        -0.6751    2.4928   -0.7614 H         1 <0>         0.0512
     71 H28         1.0606    2.7304   -0.7258 H         1 <0>         0.0454
     72 H29        -2.0302   -1.0518    4.0061 H         1 <0>         0.0575
     73 H30        -3.3514   -2.1846    4.2177 H         1 <0>         0.0743
     74 H31        -1.0357    2.9184   -4.4734 H         1 <0>         0.0662
     75 H32        -1.9421    2.6499   -2.9777 H         1 <0>         0.0622
     76 H33         1.7614    0.6251   -3.0928 H         1 <0>         0.0321
     77 H34         1.8289   -0.7905   -2.0281 H         1 <0>         0.0204
     78 H35        -2.3647   -1.1082    1.5019 H         1 <0>         0.0749
     79 H36        -6.2595   -2.7988    0.6177 H         1 <0>         0.0719
     80 H37        -4.1195    0.0762    4.7551 H         1 <0>         0.0609
     81 H38        -0.3978    0.3245   -1.8868 H         1 <0>         0.1063
     82 H39        -0.8991   -1.6289   -4.1566 H         1 <0>         0.4792
     83 H40        -2.4004   -1.6774   -5.0265 H         1 <0>         0.4819
     84 H41        -3.1158    1.8720   -4.8056 H         1 <0>         0.4802
     85 H42        -3.6846    0.3401   -5.4035 H         1 <0>         0.4826
     86 H43         0.8216    0.7626    0.7549 H         1 <0>         0.3101
     87 H44        -4.7231   -2.7191    2.1790 H         1 <0>         0.3087
     88 H45        -0.0823    0.4903   -3.3077 H         1 <0>         0.4846
     89 H46       -11.8054   -4.0915   -2.2056 H         1 <0>         0.4194
     90 H47         1.8515   -6.8926    0.0654 H         1 <0>         0.4036
     91 H48         2.9636    1.7601   -1.6856 H         1 <0>         0.4114
     92 H49        -5.9013   -4.7317   -1.0509 H         1 <0>         0.3944
@<TRIPOS>BOND
     1    1    3 ar
     2    1    5 ar
     3    2    4 ar
     4    2    5 ar
     5    3    6 ar
     6    4    6 ar
     7    5   21 1
     8    6   40 1
     9    7   15 1
    10    7   34 am
    11    7   37 2
    12    8   27 1
    13    8   31 am
    14    8   38 2
    15    9   28 1
    16    9   35 am
    17    9   39 2
    18   10   32 1
    19   10   33 1
    20   10   36 1
    21   11   12 1
    22   11   16 1
    23   12   18 1
    24   13   15 1
    25   13   16 1
    26   14   17 1
    27   14   18 1
    28   15   31 1
    29   16   17 1
    30   17   31 1
    31   18   41 1
    32   19   29 1
    33   20   29 1
    34   21   28 1
    35   22   23 1
    36   22   25 1
    37   23   30 1
    38   24   27 1
    39   24   29 1
    40   25   36 1
    41   26   30 1
    42   26   42 1
    43   27   35 1
    44   28   43 1
    45   30   34 1
    46    1   44 1
    47    2   45 1
    48    3   46 1
    49    4   47 1
    50   11   48 1
    51   11   49 1
    52   12   50 1
    53   12   51 1
    54   13   52 1
    55   13   53 1
    56   14   54 1
    57   14   55 1
    58   15   56 1
    59   16   57 1
    60   17   58 1
    61   18   59 1
    62   19   60 1
    63   19   61 1
    64   19   62 1
    65   20   63 1
    66   20   64 1
    67   20   65 1
    68   21   66 1
    69   21   67 1
    70   22   68 1
    71   22   69 1
    72   23   70 1
    73   23   71 1
    74   24   72 1
    75   24   73 1
    76   25   74 1
    77   25   75 1
    78   26   76 1
    79   26   77 1
    80   27   78 1
    81   28   79 1
    82   29   80 1
    83   30   81 1
    84   32   82 1
    85   32   83 1
    86   33   84 1
    87   33   85 1
    88   34   86 1
    89   35   87 1
    90   36   88 1
    91   40   89 1
    92   41   90 1
    93   42   91 1
    94   43   92 1
@<TRIPOS>MOLECULE
1a2c_ligand_300
   92    94     0     0     0
SMALL
USER_CHARGES

mmff94s_NoEstat = 129.03
@<TRIPOS>ATOM
      1 C1         -7.6915   -4.5534   -2.2285 C.ar      1 <0>        -0.0708
      2 C2         -7.8704   -2.1497   -2.3935 C.ar      1 <0>        -0.0872
      3 C3         -9.0245   -4.6794   -2.6196 C.ar      1 <0>        -0.2241
      4 C4         -9.2033   -2.2757   -2.7846 C.ar      1 <0>        -0.1600
      5 C5         -7.1323   -3.2903   -2.1207 C.ar      1 <0>        -0.1356
      6 C6         -9.7804   -3.5406   -2.8977 C.ar      1 <0>         0.1290
      7 C7         -0.0512   -1.0561    0.2993 C.2       1 <0>         0.6664
      8 C8         -1.8469   -3.0457    2.1630 C.2       1 <0>         0.6651
      9 C9         -4.1811   -2.4610    0.1870 C.2       1 <0>         0.6454
     10 C10         0.7040   -0.8831   -4.8107 C.cat     1 <0>         0.6349
     11 C11         2.5186   -3.1911    0.6823 C.3       1 <0>        -0.0642
     12 C12         2.4580   -4.6414    0.2376 C.3       1 <0>        -0.0747
     13 C13         1.4874   -1.4827    2.2418 C.3       1 <0>        -0.0873
     14 C14         0.4946   -5.0934    1.7133 C.3       1 <0>        -0.1371
     15 C15         0.0412   -1.4176    1.7503 C.3       1 <0>         0.0360
     16 C16         1.8865   -2.9529    2.0632 C.3       1 <0>        -0.0720
     17 C17         0.5665   -3.7001    2.3454 C.3       1 <0>         0.1201
     18 C18         1.0248   -5.1525    0.2868 C.3       1 <0>         0.1453
     19 C19        -5.3726   -0.5418    3.1302 C.3       1 <0>        -0.0968
     20 C20        -3.4397    1.0389    2.9738 C.3       1 <0>        -0.0986
     21 C21        -5.6890   -3.1540   -1.6980 C.3       1 <0>        -0.0191
     22 C22        -0.9951    2.0137   -3.0747 C.3       1 <0>        -0.1009
     23 C23        -0.8794    1.4488   -1.6540 C.3       1 <0>        -0.0942
     24 C24        -2.9973   -1.3585    3.5851 C.3       1 <0>        -0.0988
     25 C25        -0.9093    0.9015   -4.1176 C.3       1 <0>         0.1966
     26 C26         1.6856    1.6412   -1.5001 C.3       1 <0>         0.1128
     27 C27        -2.7865   -1.8644    2.1628 C.3       1 <0>         0.0786
     28 C28        -5.5432   -3.0384   -0.1771 C.3       1 <0>         0.0744
     29 C29        -3.9969   -0.1898    3.6979 C.3       1 <0>        -0.0678
     30 C30         0.4555    0.7445   -1.3388 C.3       1 <0>         0.1065
     31 N1         -0.4979   -2.7598    1.9615 N.am      1 <0>        -0.4315
     32 N2          1.9309   -1.5211   -4.6602 N.pl3     1 <0>        -0.8671
     33 N3         -0.1810   -1.3363   -5.7830 N.pl3     1 <0>        -0.8581
     34 N4          0.4455    0.1980   -0.0008 N.am      1 <0>        -0.5687
     35 N5         -3.9799   -2.3853    1.5634 N.am      1 <0>        -0.5746
     36 N6          0.3506    0.2071   -3.9968 N.pl3     1 <0>        -0.7533
     37 O1         -0.5362   -1.8555   -0.4928 O.2       1 <0>        -0.5843
     38 O2         -2.2998   -4.1783    2.3409 O.2       1 <0>        -0.6812
     39 O3         -3.3708   -2.0954   -0.6616 O.2       1 <0>        -0.5788
     40 O4        -11.0807   -3.6636   -3.2809 O.3       1 <0>        -0.4938
     41 O5          0.9879   -6.5072   -0.1510 O.3       1 <0>        -0.6030
     42 O6          1.5971    2.7470   -0.6113 O.3       1 <0>        -0.5860
     43 O7         -5.6445   -4.3341    0.3961 O.3       1 <0>        -0.6021
     44 H1         -7.1107   -5.4463   -2.0139 H         1 <0>         0.1412
     45 H2         -7.4289   -1.1601   -2.3083 H         1 <0>         0.1451
     46 H3         -9.4682   -5.6674   -2.7060 H         1 <0>         0.1336
     47 H4         -9.7869   -1.3847   -3.0007 H         1 <0>         0.1567
     48 H5          3.5627   -2.8549    0.7003 H         1 <0>         0.0649
     49 H6          2.0259   -2.5829   -0.0837 H         1 <0>         0.0476
     50 H7          2.8567   -4.7427   -0.7790 H         1 <0>         0.0641
     51 H8          3.1032   -5.2618    0.8729 H         1 <0>         0.0484
     52 H9          2.1569   -0.7868    1.7257 H         1 <0>         0.0596
     53 H10         1.5124   -1.2395    3.3116 H         1 <0>         0.0757
     54 H11         1.0921   -5.7802    2.3299 H         1 <0>         0.0782
     55 H12        -0.5175   -5.5090    1.7393 H         1 <0>         0.0812
     56 H13        -0.5378   -0.6778    2.3126 H         1 <0>         0.0731
     57 H14         2.6304   -3.2407    2.8169 H         1 <0>         0.0511
     58 H15         0.4523   -3.8218    3.4319 H         1 <0>         0.0753
     59 H16         0.3841   -4.5700   -0.3844 H         1 <0>         0.0427
     60 H17        -6.0375    0.3284    3.1563 H         1 <0>         0.0450
     61 H18        -5.8542   -1.3328    3.7128 H         1 <0>         0.0406
     62 H19        -5.2988   -0.8789    2.0908 H         1 <0>         0.0274
     63 H20        -3.3028    0.8425    1.9049 H         1 <0>         0.0476
     64 H21        -4.1178    1.8926    3.0773 H         1 <0>         0.0170
     65 H22        -2.4708    1.3315    3.3922 H         1 <0>         0.0477
     66 H23        -5.2527   -2.2721   -2.1860 H         1 <0>         0.0814
     67 H24        -5.1328   -4.0165   -2.0862 H         1 <0>         0.0685
     68 H25        -1.9473    2.5434   -3.1941 H         1 <0>         0.1016
     69 H26        -0.1993    2.7456   -3.2583 H         1 <0>         0.0660
     70 H27        -1.7000    0.7382   -1.4859 H         1 <0>         0.0512
     71 H28        -1.0340    2.2618   -0.9330 H         1 <0>         0.0454
     72 H29        -2.0302   -1.0518    4.0061 H         1 <0>         0.0575
     73 H30        -3.3514   -2.1846    4.2177 H         1 <0>         0.0743
     74 H31        -0.9933    1.3193   -5.1264 H         1 <0>         0.0662
     75 H32        -1.7263    0.1851   -3.9830 H         1 <0>         0.0622
     76 H33         1.7842    2.0214   -2.5223 H         1 <0>         0.0321
     77 H34         2.5988    1.0866   -1.2555 H         1 <0>         0.0204
     78 H35        -2.3647   -1.1082    1.5019 H         1 <0>         0.0749
     79 H36        -6.3286   -2.4083    0.2569 H         1 <0>         0.0719
     80 H37        -4.1195    0.0762    4.7551 H         1 <0>         0.0609
     81 H38         0.5463   -0.0881   -2.0483 H         1 <0>         0.1063
     82 H39         2.6098   -1.2234   -3.9646 H         1 <0>         0.4792
     83 H40         2.1856   -2.3097   -5.2504 H         1 <0>         0.4819
     84 H41        -1.0861   -0.8929   -5.9199 H         1 <0>         0.4802
     85 H42         0.0534   -2.1241   -6.3822 H         1 <0>         0.4826
     86 H43         0.8216    0.7626    0.7549 H         1 <0>         0.3101
     87 H44        -4.7231   -2.7191    2.1790 H         1 <0>         0.3087
     88 H45         1.0413    0.5002   -3.2952 H         1 <0>         0.4846
     89 H46       -11.4843   -4.4380   -2.8573 H         1 <0>         0.4194
     90 H47         1.8515   -6.8926    0.0654 H         1 <0>         0.4036
     91 H48         1.0115    3.3975   -1.0313 H         1 <0>         0.4114
     92 H49        -6.0303   -4.9121   -0.2823 H         1 <0>         0.3944
@<TRIPOS>BOND
     1    1    3 ar
     2    1    5 ar
     3    2    4 ar
     4    2    5 ar
     5    3    6 ar
     6    4    6 ar
     7    5   21 1
     8    6   40 1
     9    7   15 1
    10    7   34 am
    11    7   37 2
    12    8   27 1
    13    8   31 am
    14    8   38 2
    15    9   28 1
    16    9   35 am
    17    9   39 2
    18   10   32 1
    19   10   33 1
    20   10   36 1
    21   11   12 1
    22   11   16 1
    23   12   18 1
    24   13   15 1
    25   13   16 1
    26   14   17 1
    27   14   18 1
    28   15   31 1
    29   16   17 1
    30   17   31 1
    31   18   41 1
    32   19   29 1
    33   20   29 1
    34   21   28 1
    35   22   23 1
    36   22   25 1
    37   23   30 1
    38   24   27 1
    39   24   29 1
    40   25   36 1
    41   26   30 1
    42   26   42 1
    43   27   35 1
    44   28   43 1
    45   30   34 1
    46    1   44 1
    47    2   45 1
    48    3   46 1
    49    4   47 1
    50   11   48 1
    51   11   49 1
    52   12   50 1
    53   12   51 1
    54   13   52 1
    55   13   53 1
    56   14   54 1
    57   14   55 1
    58   15   56 1
    59   16   57 1
    60   17   58 1
    61   18   59 1
    62   19   60 1
    63   19   61 1
    64   19   62 1
    65   20   63 1
    66   20   64 1
    67   20   65 1
    68   21   66 1
    69   21   67 1
    70   22   68 1
    71   22   69 1
    72   23   70 1
    73   23   71 1
    74   24   72 1
    75   24   73 1
    76   25   74 1
    77   25   75 1
    78   26   76 1
    79   26   77 1
    80   27   78 1
    81   28   79 1
    82   29   80 1
    83   30   81 1
    84   32   82 1
    85   32   83 1
    86   33   84 1
    87   33   85 1
    88   34   86 1
    89   35   87 1
    90   36   88 1
    91   40   89 1
    92   41   90 1
    93   42   91 1
    94   43   92 1
@<TRIPOS>MOLECULE
1a2c_ligand_301
   92    94     0     0     0
SMALL
USER_CHARGES

mmff94s_NoEstat = 129.30
@<TRIPOS>ATOM
      1 C1         -6.2155   -2.4922   -0.6805 C.ar      1 <0>        -0.0708
      2 C2         -6.4716   -2.2950   -3.0747 C.ar      1 <0>        -0.0872
      3 C3         -7.3840   -1.7535   -0.4947 C.ar      1 <0>        -0.2241
      4 C4         -7.6401   -1.5563   -2.8889 C.ar      1 <0>        -0.1600
      5 C5         -5.7750   -2.7531   -1.9680 C.ar      1 <0>        -0.1356
      6 C6         -8.0964   -1.2855   -1.5989 C.ar      1 <0>         0.1290
      7 C7         -0.0512   -1.0561    0.2993 C.2       1 <0>         0.6664
      8 C8         -1.8469   -3.0457    2.1630 C.2       1 <0>         0.6651
      9 C9         -3.1350   -1.8416   -0.9503 C.2       1 <0>         0.6454
     10 C10        -3.7050    4.2413   -3.1125 C.cat     1 <0>         0.6349
     11 C11         2.5186   -3.1911    0.6823 C.3       1 <0>        -0.0642
     12 C12         2.4580   -4.6414    0.2376 C.3       1 <0>        -0.0747
     13 C13         1.4874   -1.4827    2.2418 C.3       1 <0>        -0.0873
     14 C14         0.4946   -5.0934    1.7133 C.3       1 <0>        -0.1371
     15 C15         0.0412   -1.4176    1.7503 C.3       1 <0>         0.0360
     16 C16         1.8865   -2.9529    2.0632 C.3       1 <0>        -0.0720
     17 C17         0.5665   -3.7001    2.3454 C.3       1 <0>         0.1201
     18 C18         1.0248   -5.1525    0.2868 C.3       1 <0>         0.1453
     19 C19        -3.4345   -0.1597    3.7904 C.3       1 <0>        -0.0968
     20 C20        -3.1391   -2.5257    4.5483 C.3       1 <0>        -0.0986
     21 C21        -4.5104   -3.5534   -2.1691 C.3       1 <0>        -0.0191
     22 C22        -1.2019    2.6554   -0.7648 C.3       1 <0>        -0.1009
     23 C23        -0.8794    1.4488   -1.6540 C.3       1 <0>        -0.0942
     24 C24        -4.1436   -2.0954    2.2850 C.3       1 <0>        -0.0988
     25 C25        -2.5638    3.2498   -1.1169 C.3       1 <0>         0.1966
     26 C26         1.6856    1.6412   -1.5001 C.3       1 <0>         0.1128
     27 C27        -2.8325   -2.1090    1.5076 C.3       1 <0>         0.0786
     28 C28        -3.2671   -2.6599   -2.2288 C.3       1 <0>         0.0744
     29 C29        -4.0154   -1.5731    3.7302 C.3       1 <0>        -0.0678
     30 C30         0.4555    0.7445   -1.3388 C.3       1 <0>         0.1065
     31 N1         -0.4979   -2.7598    1.9615 N.am      1 <0>        -0.4315
     32 N2         -3.6699    4.6391   -4.4450 N.pl3     1 <0>        -0.8671
     33 N3         -4.8785    4.4093   -2.3855 N.pl3     1 <0>        -0.8581
     34 N4          0.4455    0.1980   -0.0008 N.am      1 <0>        -0.5687
     35 N5         -2.9650   -2.6361    0.1813 N.am      1 <0>        -0.5746
     36 N6         -2.5755    3.6752   -2.4964 N.pl3     1 <0>        -0.7533
     37 O1         -0.5362   -1.8555   -0.4928 O.2       1 <0>        -0.5843
     38 O2         -2.2659   -3.9924    2.8322 O.2       1 <0>        -0.6812
     39 O3         -3.1903   -0.6139   -0.9436 O.2       1 <0>        -0.5788
     40 O4         -9.2375   -0.5660   -1.4176 O.3       1 <0>        -0.4938
     41 O5          0.9879   -6.5072   -0.1510 O.3       1 <0>        -0.6030
     42 O6          2.8639    0.9021   -1.2063 O.3       1 <0>        -0.5860
     43 O7         -3.3968   -1.7608   -3.3207 O.3       1 <0>        -0.6021
     44 H1         -5.6674   -2.8524    0.1858 H         1 <0>         0.1412
     45 H2         -6.1238   -2.5015   -4.0836 H         1 <0>         0.1451
     46 H3         -7.7343   -1.5460    0.5126 H         1 <0>         0.1336
     47 H4         -8.1912   -1.1952   -3.7533 H         1 <0>         0.1567
     48 H5          3.5627   -2.8549    0.7003 H         1 <0>         0.0649
     49 H6          2.0259   -2.5829   -0.0837 H         1 <0>         0.0476
     50 H7          2.8567   -4.7427   -0.7790 H         1 <0>         0.0641
     51 H8          3.1032   -5.2618    0.8729 H         1 <0>         0.0484
     52 H9          2.1569   -0.7868    1.7257 H         1 <0>         0.0596
     53 H10         1.5124   -1.2395    3.3116 H         1 <0>         0.0757
     54 H11         1.0921   -5.7802    2.3299 H         1 <0>         0.0782
     55 H12        -0.5175   -5.5090    1.7393 H         1 <0>         0.0812
     56 H13        -0.5378   -0.6778    2.3126 H         1 <0>         0.0731
     57 H14         2.6304   -3.2407    2.8169 H         1 <0>         0.0511
     58 H15         0.4523   -3.8218    3.4319 H         1 <0>         0.0753
     59 H16         0.3841   -4.5700   -0.3844 H         1 <0>         0.0427
     60 H17        -3.2863    0.1550    4.8292 H         1 <0>         0.0450
     61 H18        -4.1066    0.5680    3.3260 H         1 <0>         0.0406
     62 H19        -2.4667   -0.1061    3.2804 H         1 <0>         0.0274
     63 H20        -2.1236   -2.5806    4.1412 H         1 <0>         0.0476
     64 H21        -3.0691   -2.1929    5.5894 H         1 <0>         0.0170
     65 H22        -3.5594   -3.5370    4.5502 H         1 <0>         0.0477
     66 H23        -4.5980   -4.1387   -3.0942 H         1 <0>         0.0814
     67 H24        -4.4337   -4.2874   -1.3571 H         1 <0>         0.0685
     68 H25        -1.2036    2.3575    0.2901 H         1 <0>         0.1016
     69 H26        -0.4298    3.4262   -0.8760 H         1 <0>         0.0660
     70 H27        -0.8663    1.7736   -2.7033 H         1 <0>         0.0512
     71 H28        -1.6959    0.7195   -1.5759 H         1 <0>         0.0454
     72 H29        -4.5642   -3.1100    2.3009 H         1 <0>         0.0575
     73 H30        -4.8775   -1.4748    1.7520 H         1 <0>         0.0743
     74 H31        -2.7806    4.1099   -0.4745 H         1 <0>         0.0662
     75 H32        -3.3565    2.5102   -0.9645 H         1 <0>         0.0622
     76 H33         1.6463    2.5133   -0.8391 H         1 <0>         0.0321
     77 H34         1.7645    2.0016   -2.5321 H         1 <0>         0.0204
     78 H35        -2.3644   -1.1272    1.4485 H         1 <0>         0.0749
     79 H36        -2.3537   -3.2485   -2.3749 H         1 <0>         0.0719
     80 H37        -5.0090   -1.5561    4.1946 H         1 <0>         0.0609
     81 H38         0.5463   -0.0881   -2.0483 H         1 <0>         0.1063
     82 H39        -2.8341    4.5376   -5.0145 H         1 <0>         0.4792
     83 H40        -4.4880    5.0493   -4.8895 H         1 <0>         0.4819
     84 H41        -4.9387    4.1296   -1.4095 H         1 <0>         0.4802
     85 H42        -5.7081    4.8156   -2.8114 H         1 <0>         0.4826
     86 H43         0.8216    0.7626    0.7549 H         1 <0>         0.3101
     87 H44        -2.9331   -3.6495    0.0592 H         1 <0>         0.3087
     88 H45        -1.7358    3.5742   -3.0793 H         1 <0>         0.4846
     89 H46        -9.1777   -0.0400   -0.6042 H         1 <0>         0.4194
     90 H47         1.8515   -6.8926    0.0654 H         1 <0>         0.4036
     91 H48         2.9483    0.8828   -0.2393 H         1 <0>         0.4114
     92 H49        -4.1021   -2.1097   -3.8898 H         1 <0>         0.3944
@<TRIPOS>BOND
     1    1    3 ar
     2    1    5 ar
     3    2    4 ar
     4    2    5 ar
     5    3    6 ar
     6    4    6 ar
     7    5   21 1
     8    6   40 1
     9    7   15 1
    10    7   34 am
    11    7   37 2
    12    8   27 1
    13    8   31 am
    14    8   38 2
    15    9   28 1
    16    9   35 am
    17    9   39 2
    18   10   32 1
    19   10   33 1
    20   10   36 1
    21   11   12 1
    22   11   16 1
    23   12   18 1
    24   13   15 1
    25   13   16 1
    26   14   17 1
    27   14   18 1
    28   15   31 1
    29   16   17 1
    30   17   31 1
    31   18   41 1
    32   19   29 1
    33   20   29 1
    34   21   28 1
    35   22   23 1
    36   22   25 1
    37   23   30 1
    38   24   27 1
    39   24   29 1
    40   25   36 1
    41   26   30 1
    42   26   42 1
    43   27   35 1
    44   28   43 1
    45   30   34 1
    46    1   44 1
    47    2   45 1
    48    3   46 1
    49    4   47 1
    50   11   48 1
    51   11   49 1
    52   12   50 1
    53   12   51 1
    54   13   52 1
    55   13   53 1
    56   14   54 1
    57   14   55 1
    58   15   56 1
    59   16   57 1
    60   17   58 1
    61   18   59 1
    62   19   60 1
    63   19   61 1
    64   19   62 1
    65   20   63 1
    66   20   64 1
    67   20   65 1
    68   21   66 1
    69   21   67 1
    70   22   68 1
    71   22   69 1
    72   23   70 1
    73   23   71 1
    74   24   72 1
    75   24   73 1
    76   25   74 1
    77   25   75 1
    78   26   76 1
    79   26   77 1
    80   27   78 1
    81   28   79 1
    82   29   80 1
    83   30   81 1
    84   32   82 1
    85   32   83 1
    86   33   84 1
    87   33   85 1
    88   34   86 1
    89   35   87 1
    90   36   88 1
    91   40   89 1
    92   41   90 1
    93   42   91 1
    94   43   92 1
