@<TRIPOS>MOLECULE
1a46_ligand_0
   80    83     0     0     0
SMALL
USER_CHARGES

@<TRIPOS>ATOM
      1 C1         21.7640  -14.9700   25.8970 C.ar      1 <0>        -0.1300
      2 C2         21.4440  -16.3440   25.7910 C.ar      1 <0>        -0.1323
      3 C3         20.7180  -14.0540   25.7630 C.ar      1 <0>        -0.1309
      4 C4         20.1350  -16.7590   25.4640 C.ar      1 <0>        -0.1275
      5 C5         19.3780  -14.4480   25.4620 C.ar      1 <0>        -0.1272
      6 C6         19.1000  -15.8010   25.2950 C.ar      1 <0>        -0.0843
      7 C7         17.3350  -14.7700   22.7690 C.2       1 <0>         0.6709
      8 C8         14.7250  -10.8380   18.4380 C.2       1 <0>         0.4867
      9 C9         15.5670  -11.3280   17.2710 C.2       1 <0>         0.5883
     10 C10        16.9040  -12.9250   20.4710 C.2       1 <0>         0.6572
     11 C11        14.7990  -13.9240   12.9220 C.3       1 <0>        -0.0802
     12 C12        15.1740  -14.5170   14.2810 C.3       1 <0>        -0.0765
     13 C13        14.3580  -12.4880   13.0920 C.3       1 <0>        -0.0774
     14 C14        16.2580  -13.6970   14.9770 C.3       1 <0>        -0.0953
     15 C15        15.4670  -11.6550   13.7200 C.3       1 <0>        -0.0906
     16 C16        19.1510  -12.9170   20.2820 C.3       1 <0>        -0.0871
     17 C17        18.4530  -17.0690   22.4880 C.3       1 <0>        -0.0716
     18 C18        20.1300  -14.0550   20.8090 C.3       1 <0>         0.1333
     19 C19        19.6340  -16.2770   21.8660 C.3       1 <0>         0.1246
     20 C20        18.1070  -12.8900   21.3670 C.3       1 <0>         0.0606
     21 C21        15.8590  -12.2370   15.0570 C.3       1 <0>         0.1012
     22 C22        17.5430  -16.1710   23.3270 C.3       1 <0>         0.1554
     23 C23        17.7500  -16.2480   24.8510 C.3       1 <0>        -0.0356
     24 C24        13.1380  -12.3920   21.5070 C.3       1 <0>        -0.0795
     25 C25        11.8370  -12.1140   22.1980 C.3       1 <0>        -0.1203
     26 C26        13.4480  -11.5070   20.3690 C.3       1 <0>        -0.0920
     27 C27        11.4640  -13.2430   23.1240 C.3       1 <0>         0.1502
     28 C28        14.7420  -11.7780   19.6390 C.3       1 <0>         0.0224
     29 N1         18.0650  -14.3560   21.7620 N.am      1 <0>        -0.3553
     30 N2         19.1420  -15.0830   21.1520 N.3       1 <0>        -0.4320
     31 N3         16.1330  -16.5830   23.4070 N.3       1 <0>        -0.9031
     32 N4         10.3380  -13.0070   24.0160 N.3       1 <0>        -0.9068
     33 N5         15.0190  -11.8250   16.1850 N.am      1 <0>        -0.5526
     34 N6         15.9050  -11.9600   20.4890 N.am      1 <0>        -0.5576
     35 O1         16.2860  -14.1430   23.1100 O.2       1 <0>        -0.6710
     36 O2         13.6010  -10.5900   17.8110 O.2       1 <0>        -0.4901
     37 O3         16.6950  -10.9720   17.4380 O.2       1 <0>        -0.5902
     38 O4         16.7260  -13.8320   19.5610 O.2       1 <0>        -0.5833
     39 H1         22.7870  -14.6391   26.0763 H         1 <0>         0.1320
     40 H2         22.2181  -17.0917   25.9640 H         1 <0>         0.1324
     41 H3         20.9332  -12.9935   25.8936 H         1 <0>         0.1328
     42 H4         19.9174  -17.8199   25.3406 H         1 <0>         0.1324
     43 H5         18.5885  -13.7027   25.3650 H         1 <0>         0.1434
     44 H6         13.9838  -14.4969   12.4800 H         1 <0>         0.0405
     45 H7         15.6596  -13.9555   12.2538 H         1 <0>         0.0421
     46 H8         14.2600  -14.5640   14.8730 H         1 <0>         0.0362
     47 H9         15.4944  -15.5438   14.1048 H         1 <0>         0.0439
     48 H10        13.4806  -12.4279   13.7360 H         1 <0>         0.0350
     49 H11        14.1042  -12.0461   12.1285 H         1 <0>         0.0428
     50 H12        16.4097  -14.1112   15.9737 H         1 <0>         0.0663
     51 H13        17.1851  -13.8140   14.4159 H         1 <0>         0.0466
     52 H14        16.3256  -11.6481   13.0485 H         1 <0>         0.0493
     53 H15        15.1108  -10.6327   13.8467 H         1 <0>         0.0520
     54 H16        18.7329  -13.1699   19.3076 H         1 <0>         0.0915
     55 H17        19.6678  -11.9630   20.1771 H         1 <0>         0.0601
     56 H18        17.9148  -17.5363   21.6633 H         1 <0>         0.0688
     57 H19        18.8877  -17.8742   23.0802 H         1 <0>         0.0630
     58 H20        20.8347  -14.4018   20.0532 H         1 <0>         0.0807
     59 H21        20.7195  -13.7504   21.6737 H         1 <0>         0.0380
     60 H22        20.3142  -15.9923   22.6687 H         1 <0>         0.0484
     61 H23        20.1682  -16.9397   21.1851 H         1 <0>         0.0697
     62 H24        18.3887  -12.2552   22.2071 H         1 <0>         0.0843
     63 H25        16.7855  -11.6656   15.1127 H         1 <0>         0.0831
     64 H26        16.9336  -15.6636   25.2754 H         1 <0>         0.0704
     65 H27        17.5224  -17.2811   25.1138 H         1 <0>         0.0718
     66 H28        13.9294  -12.2793   22.2480 H         1 <0>         0.0606
     67 H29        13.0962  -13.4163   21.1368 H         1 <0>         0.0458
     68 H30        11.0289  -11.9925   21.4767 H         1 <0>         0.0375
     69 H31        11.8959  -11.2012   22.7908 H         1 <0>         0.0392
     70 H32        12.6334  -11.6150   19.6529 H         1 <0>         0.0606
     71 H33        13.4941  -10.4911   20.7614 H         1 <0>         0.0579
     72 H34        12.3277  -13.4548   23.7543 H         1 <0>         0.0571
     73 H35        11.2051  -14.1051   22.5093 H         1 <0>         0.0503
     74 H36        14.5170  -12.7592   19.2211 H         1 <0>         0.0993
     75 H37        15.5316  -15.7473   23.4332 H         1 <0>         0.3700
     76 H38        15.8937  -17.1518   22.5823 H         1 <0>         0.3660
     77 H39        10.5439  -12.2015   24.6240 H         1 <0>         0.3465
     78 H40         9.4940  -12.8096   23.4595 H         1 <0>         0.3446
     79 H41        13.9956  -11.9253   16.1263 H         1 <0>         0.3148
     80 H42        16.0065  -11.2535   21.2316 H         1 <0>         0.3220
@<TRIPOS>BOND
     1    1    2 ar
     2    1    3 ar
     3    2    4 ar
     4    3    5 ar
     5    4    6 ar
     6    5    6 ar
     7    6   23 1
     8    7   22 1
     9    7   29 am
    10    7   35 2
    11    8    9 1
    12    8   28 1
    13    8   36 2
    14    9   33 am
    15    9   37 2
    16   10   20 1
    17   10   34 am
    18   10   38 2
    19   11   12 1
    20   11   13 1
    21   12   14 1
    22   13   15 1
    23   14   21 1
    24   15   21 1
    25   16   18 1
    26   16   20 1
    27   17   19 1
    28   17   22 1
    29   18   30 1
    30   19   30 1
    31   20   29 1
    32   21   33 1
    33   22   23 1
    34   22   31 1
    35   24   25 1
    36   24   26 1
    37   25   27 1
    38   26   28 1
    39   27   32 1
    40   28   34 1
    41   29   30 1
    42    1   39 1
    43    2   40 1
    44    3   41 1
    45    4   42 1
    46    5   43 1
    47   11   44 1
    48   11   45 1
    49   12   46 1
    50   12   47 1
    51   13   48 1
    52   13   49 1
    53   14   50 1
    54   14   51 1
    55   15   52 1
    56   15   53 1
    57   16   54 1
    58   16   55 1
    59   17   56 1
    60   17   57 1
    61   18   58 1
    62   18   59 1
    63   19   60 1
    64   19   61 1
    65   20   62 1
    66   21   63 1
    67   23   64 1
    68   23   65 1
    69   24   66 1
    70   24   67 1
    71   25   68 1
    72   25   69 1
    73   26   70 1
    74   26   71 1
    75   27   72 1
    76   27   73 1
    77   28   74 1
    78   31   75 1
    79   31   76 1
    80   32   77 1
    81   32   78 1
    82   33   79 1
    83   34   80 1
@<TRIPOS>MOLECULE
1a46_ligand_1
   80    83     0     0     0
SMALL
USER_CHARGES

mmff94s_NoEstat = 79.66
@<TRIPOS>ATOM
      1 C1         11.0121    9.2104   -7.9325 C.ar      1 <0>        -0.1300
      2 C2         11.5385    8.8832   -6.6829 C.ar      1 <0>        -0.1323
      3 C3          9.6345    9.1559   -8.1449 C.ar      1 <0>        -0.1309
      4 C4         10.6874    8.5015   -5.6458 C.ar      1 <0>        -0.1275
      5 C5          8.7834    8.7742   -7.1078 C.ar      1 <0>        -0.1272
      6 C6          9.3154    8.4495   -5.8650 C.ar      1 <0>        -0.0843
      7 C7          7.2411    6.0968   -3.6024 C.2       1 <0>         0.6709
      8 C8          5.2358    2.3798    1.5634 C.2       1 <0>         0.4867
      9 C9          4.0737    1.7586    0.8450 C.2       1 <0>         0.5883
     10 C10         6.5256    3.6321   -1.6689 C.2       1 <0>         0.6572
     11 C11         0.4518    4.7141   -0.7499 C.3       1 <0>        -0.0802
     12 C12         0.4604    4.3542    0.7335 C.3       1 <0>        -0.0765
     13 C13         1.6276    4.0877   -1.4949 C.3       1 <0>        -0.0774
     14 C14         0.5251    2.8410    0.9450 C.3       1 <0>        -0.0953
     15 C15         1.6892    2.5750   -1.2783 C.3       1 <0>        -0.0906
     16 C16         5.2113    3.0694   -3.7284 C.3       1 <0>        -0.0871
     17 C17         7.6012    6.0599   -6.1012 C.3       1 <0>        -0.0716
     18 C18         6.3446    2.7580   -4.7039 C.3       1 <0>         0.1333
     19 C19         6.8355    4.7264   -6.0536 C.3       1 <0>         0.1246
     20 C20         5.7868    4.1659   -2.8575 C.3       1 <0>         0.0606
     21 C21         1.6997    2.1861    0.2060 C.3       1 <0>         0.1012
     22 C22         8.1773    6.5224   -4.7422 C.3       1 <0>         0.1554
     23 C23         8.4000    8.0389   -4.7494 C.3       1 <0>        -0.0356
     24 C24         6.0158    5.3379    2.0114 C.3       1 <0>        -0.0795
     25 C25         6.7209    6.4716    2.7653 C.3       1 <0>        -0.1203
     26 C26         6.9719    4.2276    1.5544 C.3       1 <0>        -0.0920
     27 C27         5.7742    7.5909    3.1979 C.3       1 <0>         0.1502
     28 C28         6.2906    3.1130    0.7514 C.3       1 <0>         0.0224
     29 N1          6.7674    4.7991   -3.7183 N.am      1 <0>        -0.3553
     30 N2          7.1280    4.0001   -4.8193 N.3       1 <0>        -0.4320
     31 N3          9.4643    5.8648   -4.4722 N.3       1 <0>        -0.9031
     32 N4          6.5168    8.6391    3.8900 N.3       1 <0>        -0.9068
     33 N5          2.9687    2.5774    0.8237 N.am      1 <0>        -0.5526
     34 N6          5.7762    3.5917   -0.5046 N.am      1 <0>        -0.5576
     35 O1          6.9567    6.8465   -2.6685 O.2       1 <0>        -0.6710
     36 O2          5.3022    2.1819    2.7699 O.2       1 <0>        -0.4901
     37 O3          4.2153    0.6340    0.3935 O.2       1 <0>        -0.5902
     38 O4          7.6924    3.2783   -1.7917 O.2       1 <0>        -0.5833
     39 H1         11.6747    9.5075   -8.7400 H         1 <0>         0.1320
     40 H2         12.6111    8.9257   -6.5176 H         1 <0>         0.1324
     41 H3          9.2248    9.4105   -9.1180 H         1 <0>         0.1328
     42 H4         11.1066    8.2484   -4.6756 H         1 <0>         0.1324
     43 H5          7.7115    8.7346   -7.2826 H         1 <0>         0.1434
     44 H6         -0.4874    4.3704   -1.2007 H         1 <0>         0.0405
     45 H7          0.4800    5.8035   -0.8654 H         1 <0>         0.0421
     46 H8          1.3175    4.8339    1.2211 H         1 <0>         0.0362
     47 H9         -0.4408    4.7532    1.2132 H         1 <0>         0.0439
     48 H10         1.5394    4.3016   -2.5662 H         1 <0>         0.0350
     49 H11         2.5628    4.5493   -1.1557 H         1 <0>         0.0428
     50 H12         0.5905    2.6301    2.0193 H         1 <0>         0.0663
     51 H13        -0.4122    2.3938    0.5899 H         1 <0>         0.0466
     52 H14         0.8190    2.1125   -1.7613 H         1 <0>         0.0493
     53 H15         2.5797    2.1759   -1.7790 H         1 <0>         0.0520
     54 H16         4.3507    3.4578   -4.2870 H         1 <0>         0.0915
     55 H17         4.8908    2.1856   -3.1683 H         1 <0>         0.0601
     56 H18         8.4120    5.9885   -6.8390 H         1 <0>         0.0688
     57 H19         6.9149    6.8257   -6.4876 H         1 <0>         0.0630
     58 H20         6.9926    1.9855   -4.2725 H         1 <0>         0.0807
     59 H21         5.9735    2.3729   -5.6602 H         1 <0>         0.0380
     60 H22         5.7592    4.9288   -6.1435 H         1 <0>         0.0484
     61 H23         7.1185    4.1245   -6.9255 H         1 <0>         0.0697
     62 H24         5.0406    4.8864   -2.5107 H         1 <0>         0.0843
     63 H25         1.6405    1.0972    0.3052 H         1 <0>         0.0831
     64 H26         8.8151    8.3408   -3.7861 H         1 <0>         0.0704
     65 H27         7.4343    8.5386   -4.8464 H         1 <0>         0.0718
     66 H28         5.2579    4.9142    2.6804 H         1 <0>         0.0606
     67 H29         5.4809    5.7546    1.1500 H         1 <0>         0.0458
     68 H30         7.2000    6.0392    3.6534 H         1 <0>         0.0375
     69 H31         7.5258    6.8807    2.1417 H         1 <0>         0.0392
     70 H32         7.4599    3.7926    2.4354 H         1 <0>         0.0606
     71 H33         7.7645    4.6634    0.9347 H         1 <0>         0.0579
     72 H34         4.9986    7.1962    3.8630 H         1 <0>         0.0571
     73 H35         5.2784    8.0349    2.3297 H         1 <0>         0.0503
     74 H36         7.0421    2.3587    0.4881 H         1 <0>         0.0993
     75 H37         9.5764    4.9261   -4.7778 H         1 <0>         0.3700
     76 H38        10.0811    6.3037   -3.8286 H         1 <0>         0.3660
     77 H39         5.9996    9.3711    4.3277 H         1 <0>         0.3465
     78 H40         7.4997    8.7018    3.7315 H         1 <0>         0.3446
     79 H41         3.0357    3.4942    1.2556 H         1 <0>         0.3148
     80 H42         4.8120    3.9176   -0.5391 H         1 <0>         0.3220
@<TRIPOS>BOND
     1    1    2 ar
     2    1    3 ar
     3    2    4 ar
     4    3    5 ar
     5    4    6 ar
     6    5    6 ar
     7    6   23 1
     8    7   22 1
     9    7   29 am
    10    7   35 2
    11    8    9 1
    12    8   28 1
    13    8   36 2
    14    9   33 am
    15    9   37 2
    16   10   20 1
    17   10   34 am
    18   10   38 2
    19   11   12 1
    20   11   13 1
    21   12   14 1
    22   13   15 1
    23   14   21 1
    24   15   21 1
    25   16   18 1
    26   16   20 1
    27   17   19 1
    28   17   22 1
    29   18   30 1
    30   19   30 1
    31   20   29 1
    32   21   33 1
    33   22   23 1
    34   22   31 1
    35   24   25 1
    36   24   26 1
    37   25   27 1
    38   26   28 1
    39   27   32 1
    40   28   34 1
    41   29   30 1
    42    1   39 1
    43    2   40 1
    44    3   41 1
    45    4   42 1
    46    5   43 1
    47   11   44 1
    48   11   45 1
    49   12   46 1
    50   12   47 1
    51   13   48 1
    52   13   49 1
    53   14   50 1
    54   14   51 1
    55   15   52 1
    56   15   53 1
    57   16   54 1
    58   16   55 1
    59   17   56 1
    60   17   57 1
    61   18   58 1
    62   18   59 1
    63   19   60 1
    64   19   61 1
    65   20   62 1
    66   21   63 1
    67   23   64 1
    68   23   65 1
    69   24   66 1
    70   24   67 1
    71   25   68 1
    72   25   69 1
    73   26   70 1
    74   26   71 1
    75   27   72 1
    76   27   73 1
    77   28   74 1
    78   31   75 1
    79   31   76 1
    80   32   77 1
    81   32   78 1
    82   33   79 1
    83   34   80 1
@<TRIPOS>MOLECULE
1a46_ligand_2
   80    83     0     0     0
SMALL
USER_CHARGES

mmff94s_NoEstat = 80.10
@<TRIPOS>ATOM
      1 C1          5.6982   13.0256   -2.9158 C.ar      1 <0>        -0.1300
      2 C2          6.1379   12.4463   -1.7256 C.ar      1 <0>        -0.1323
      3 C3          4.9080   12.2902   -3.7992 C.ar      1 <0>        -0.1309
      4 C4          5.7876   11.1315   -1.4188 C.ar      1 <0>        -0.1275
      5 C5          4.5577   10.9753   -3.4925 C.ar      1 <0>        -0.1272
      6 C6          4.9998   10.4046   -2.3043 C.ar      1 <0>        -0.0843
      7 C7          5.2783    6.5491   -2.1791 C.2       1 <0>         0.6709
      8 C8          5.2358    2.3798    1.5634 C.2       1 <0>         0.4867
      9 C9          4.0737    1.7586    0.8450 C.2       1 <0>         0.5883
     10 C10         6.5256    3.6321   -1.6689 C.2       1 <0>         0.6572
     11 C11         5.1813   -1.4375   -2.8753 C.3       1 <0>        -0.0802
     12 C12         5.0478    0.0721   -3.0578 C.3       1 <0>        -0.0765
     13 C13         4.9968   -1.8536   -1.4184 C.3       1 <0>        -0.0774
     14 C14         3.7316    0.5945   -2.4806 C.3       1 <0>        -0.0953
     15 C15         3.6804   -1.3269   -0.8452 C.3       1 <0>        -0.0906
     16 C16         6.3772    3.6983   -4.1707 C.3       1 <0>        -0.0871
     17 C17         5.8129    8.1649   -4.0442 C.3       1 <0>        -0.0716
     18 C18         7.4333    4.7567   -4.4831 C.3       1 <0>         0.1333
     19 C19         6.3652    6.9275   -4.7727 C.3       1 <0>         0.1246
     20 C20         5.7868    4.1659   -2.8575 C.3       1 <0>         0.0606
     21 C21         3.5216    0.1899   -1.0153 C.3       1 <0>         0.1012
     22 C22         5.6591    7.9981   -2.5141 C.3       1 <0>         0.1554
     23 C23         4.6229    8.9902   -1.9743 C.3       1 <0>        -0.0356
     24 C24         6.0158    5.3379    2.0114 C.3       1 <0>        -0.0795
     25 C25         6.7209    6.4716    2.7653 C.3       1 <0>        -0.1203
     26 C26         6.9719    4.2276    1.5544 C.3       1 <0>        -0.0920
     27 C27         5.7742    7.5909    3.1979 C.3       1 <0>         0.1502
     28 C28         6.2906    3.1130    0.7514 C.3       1 <0>         0.0224
     29 N1          6.0028    5.5999   -2.8834 N.am      1 <0>        -0.3553
     30 N2          6.9706    5.9918   -3.8269 N.3       1 <0>        -0.4320
     31 N3          6.9384    8.2454   -1.8330 N.3       1 <0>        -0.9031
     32 N4          6.5168    8.6391    3.8900 N.3       1 <0>        -0.9068
     33 N5          4.4695    0.8988   -0.1529 N.am      1 <0>        -0.5526
     34 N6          5.7762    3.5917   -0.5046 N.am      1 <0>        -0.5576
     35 O1          4.4149    6.2702   -1.3473 O.2       1 <0>        -0.6710
     36 O2          5.3022    2.1819    2.7699 O.2       1 <0>        -0.4901
     37 O3          2.9489    2.0822    1.1900 O.2       1 <0>        -0.5902
     38 O4          7.6924    3.2783   -1.7917 O.2       1 <0>        -0.5833
     39 H1          5.9710   14.0494   -3.1547 H         1 <0>         0.1320
     40 H2          6.7531   13.0191   -1.0378 H         1 <0>         0.1324
     41 H3          4.5659   12.7413   -4.7260 H         1 <0>         0.1328
     42 H4          6.1348   10.6884   -0.4892 H         1 <0>         0.1324
     43 H5          3.9418   10.4100   -4.1868 H         1 <0>         0.1434
     44 H6          4.4315   -1.9450   -3.4949 H         1 <0>         0.0405
     45 H7          6.1639   -1.7668   -3.2316 H         1 <0>         0.0421
     46 H8          5.8920    0.5752   -2.5711 H         1 <0>         0.0362
     47 H9          5.1042    0.3193   -4.1242 H         1 <0>         0.0439
     48 H10         5.0182   -2.9468   -1.3432 H         1 <0>         0.0350
     49 H11         5.8374   -1.4788   -0.8221 H         1 <0>         0.0428
     50 H12         3.7040    1.6866   -2.5780 H         1 <0>         0.0663
     51 H13         2.9012    0.2010   -3.0806 H         1 <0>         0.0466
     52 H14         2.8471   -1.8309   -1.3512 H         1 <0>         0.0493
     53 H15         3.6170   -1.5959    0.2162 H         1 <0>         0.0520
     54 H16         5.6043    3.7190   -4.9489 H         1 <0>         0.0915
     55 H17         6.7998    2.6898   -4.1286 H         1 <0>         0.0601
     56 H18         6.4556    9.0301   -4.2569 H         1 <0>         0.0688
     57 H19         4.8364    8.4048   -4.4864 H         1 <0>         0.0630
     58 H20         8.3862    4.4645   -4.0255 H         1 <0>         0.0807
     59 H21         7.6091    4.8610   -5.5594 H         1 <0>         0.0380
     60 H22         5.5493    6.4477   -5.3309 H         1 <0>         0.0484
     61 H23         7.1061    7.2537   -5.5124 H         1 <0>         0.0697
     62 H24         4.7253    3.9276   -2.7453 H         1 <0>         0.0843
     63 H25         2.5248    0.4986   -0.6837 H         1 <0>         0.0831
     64 H26         4.5381    8.8614   -0.8937 H         1 <0>         0.0704
     65 H27         3.6462    8.7482   -2.3975 H         1 <0>         0.0718
     66 H28         5.2579    4.9142    2.6804 H         1 <0>         0.0606
     67 H29         5.4809    5.7546    1.1500 H         1 <0>         0.0458
     68 H30         7.2000    6.0392    3.6534 H         1 <0>         0.0375
     69 H31         7.5258    6.8807    2.1417 H         1 <0>         0.0392
     70 H32         7.4599    3.7926    2.4354 H         1 <0>         0.0606
     71 H33         7.7645    4.6634    0.9347 H         1 <0>         0.0579
     72 H34         4.9986    7.1962    3.8630 H         1 <0>         0.0571
     73 H35         5.2784    8.0349    2.3297 H         1 <0>         0.0503
     74 H36         7.0421    2.3587    0.4881 H         1 <0>         0.0993
     75 H37         7.7703    7.9574   -2.2937 H         1 <0>         0.3700
     76 H38         6.9090    8.4964   -0.8720 H         1 <0>         0.3660
     77 H39         5.9996    9.3711    4.3277 H         1 <0>         0.3465
     78 H40         7.4997    8.7018    3.7315 H         1 <0>         0.3446
     79 H41         5.4635    0.7487   -0.2981 H         1 <0>         0.3148
     80 H42         4.8120    3.9176   -0.5391 H         1 <0>         0.3220
@<TRIPOS>BOND
     1    1    2 ar
     2    1    3 ar
     3    2    4 ar
     4    3    5 ar
     5    4    6 ar
     6    5    6 ar
     7    6   23 1
     8    7   22 1
     9    7   29 am
    10    7   35 2
    11    8    9 1
    12    8   28 1
    13    8   36 2
    14    9   33 am
    15    9   37 2
    16   10   20 1
    17   10   34 am
    18   10   38 2
    19   11   12 1
    20   11   13 1
    21   12   14 1
    22   13   15 1
    23   14   21 1
    24   15   21 1
    25   16   18 1
    26   16   20 1
    27   17   19 1
    28   17   22 1
    29   18   30 1
    30   19   30 1
    31   20   29 1
    32   21   33 1
    33   22   23 1
    34   22   31 1
    35   24   25 1
    36   24   26 1
    37   25   27 1
    38   26   28 1
    39   27   32 1
    40   28   34 1
    41   29   30 1
    42    1   39 1
    43    2   40 1
    44    3   41 1
    45    4   42 1
    46    5   43 1
    47   11   44 1
    48   11   45 1
    49   12   46 1
    50   12   47 1
    51   13   48 1
    52   13   49 1
    53   14   50 1
    54   14   51 1
    55   15   52 1
    56   15   53 1
    57   16   54 1
    58   16   55 1
    59   17   56 1
    60   17   57 1
    61   18   58 1
    62   18   59 1
    63   19   60 1
    64   19   61 1
    65   20   62 1
    66   21   63 1
    67   23   64 1
    68   23   65 1
    69   24   66 1
    70   24   67 1
    71   25   68 1
    72   25   69 1
    73   26   70 1
    74   26   71 1
    75   27   72 1
    76   27   73 1
    77   28   74 1
    78   31   75 1
    79   31   76 1
    80   32   77 1
    81   32   78 1
    82   33   79 1
    83   34   80 1
@<TRIPOS>MOLECULE
1a46_ligand_3
   80    83     0     0     0
SMALL
USER_CHARGES

mmff94s_NoEstat = 80.15
@<TRIPOS>ATOM
      1 C1          5.6982   13.0256   -2.9158 C.ar      1 <0>        -0.1300
      2 C2          6.1379   12.4463   -1.7256 C.ar      1 <0>        -0.1323
      3 C3          4.9080   12.2902   -3.7992 C.ar      1 <0>        -0.1309
      4 C4          5.7876   11.1315   -1.4188 C.ar      1 <0>        -0.1275
      5 C5          4.5577   10.9753   -3.4925 C.ar      1 <0>        -0.1272
      6 C6          4.9998   10.4046   -2.3043 C.ar      1 <0>        -0.0843
      7 C7          5.2783    6.5491   -2.1791 C.2       1 <0>         0.6709
      8 C8          5.2358    2.3798    1.5634 C.2       1 <0>         0.4867
      9 C9          4.0737    1.7586    0.8450 C.2       1 <0>         0.5883
     10 C10         6.5256    3.6321   -1.6689 C.2       1 <0>         0.6572
     11 C11         0.4518    4.7141   -0.7499 C.3       1 <0>        -0.0802
     12 C12         0.4604    4.3542    0.7335 C.3       1 <0>        -0.0765
     13 C13         1.6276    4.0877   -1.4949 C.3       1 <0>        -0.0774
     14 C14         0.5251    2.8410    0.9450 C.3       1 <0>        -0.0953
     15 C15         1.6892    2.5750   -1.2783 C.3       1 <0>        -0.0906
     16 C16         6.3772    3.6983   -4.1707 C.3       1 <0>        -0.0871
     17 C17         5.8129    8.1649   -4.0442 C.3       1 <0>        -0.0716
     18 C18         7.4333    4.7567   -4.4831 C.3       1 <0>         0.1333
     19 C19         6.3652    6.9275   -4.7727 C.3       1 <0>         0.1246
     20 C20         5.7868    4.1659   -2.8575 C.3       1 <0>         0.0606
     21 C21         1.6997    2.1861    0.2060 C.3       1 <0>         0.1012
     22 C22         5.6591    7.9981   -2.5141 C.3       1 <0>         0.1554
     23 C23         4.6229    8.9902   -1.9743 C.3       1 <0>        -0.0356
     24 C24         6.0158    5.3379    2.0114 C.3       1 <0>        -0.0795
     25 C25         6.7209    6.4716    2.7653 C.3       1 <0>        -0.1203
     26 C26         6.9719    4.2276    1.5544 C.3       1 <0>        -0.0920
     27 C27         5.7742    7.5909    3.1979 C.3       1 <0>         0.1502
     28 C28         6.2906    3.1130    0.7514 C.3       1 <0>         0.0224
     29 N1          6.0028    5.5999   -2.8834 N.am      1 <0>        -0.3553
     30 N2          6.9706    5.9918   -3.8269 N.3       1 <0>        -0.4320
     31 N3          6.9384    8.2454   -1.8330 N.3       1 <0>        -0.9031
     32 N4          6.5168    8.6391    3.8900 N.3       1 <0>        -0.9068
     33 N5          2.9687    2.5774    0.8237 N.am      1 <0>        -0.5526
     34 N6          5.7762    3.5917   -0.5046 N.am      1 <0>        -0.5576
     35 O1          4.4149    6.2702   -1.3473 O.2       1 <0>        -0.6710
     36 O2          5.3022    2.1819    2.7699 O.2       1 <0>        -0.4901
     37 O3          4.2153    0.6340    0.3935 O.2       1 <0>        -0.5902
     38 O4          7.6924    3.2783   -1.7917 O.2       1 <0>        -0.5833
     39 H1          5.9710   14.0494   -3.1547 H         1 <0>         0.1320
     40 H2          6.7531   13.0191   -1.0378 H         1 <0>         0.1324
     41 H3          4.5659   12.7413   -4.7260 H         1 <0>         0.1328
     42 H4          6.1348   10.6884   -0.4892 H         1 <0>         0.1324
     43 H5          3.9418   10.4100   -4.1868 H         1 <0>         0.1434
     44 H6         -0.4874    4.3704   -1.2007 H         1 <0>         0.0405
     45 H7          0.4800    5.8035   -0.8654 H         1 <0>         0.0421
     46 H8          1.3175    4.8339    1.2211 H         1 <0>         0.0362
     47 H9         -0.4408    4.7532    1.2132 H         1 <0>         0.0439
     48 H10         1.5394    4.3016   -2.5662 H         1 <0>         0.0350
     49 H11         2.5628    4.5493   -1.1557 H         1 <0>         0.0428
     50 H12         0.5905    2.6301    2.0193 H         1 <0>         0.0663
     51 H13        -0.4122    2.3938    0.5899 H         1 <0>         0.0466
     52 H14         0.8190    2.1125   -1.7613 H         1 <0>         0.0493
     53 H15         2.5797    2.1759   -1.7790 H         1 <0>         0.0520
     54 H16         5.6043    3.7190   -4.9489 H         1 <0>         0.0915
     55 H17         6.7998    2.6898   -4.1286 H         1 <0>         0.0601
     56 H18         6.4556    9.0301   -4.2569 H         1 <0>         0.0688
     57 H19         4.8364    8.4048   -4.4864 H         1 <0>         0.0630
     58 H20         8.3862    4.4645   -4.0255 H         1 <0>         0.0807
     59 H21         7.6091    4.8610   -5.5594 H         1 <0>         0.0380
     60 H22         5.5493    6.4477   -5.3309 H         1 <0>         0.0484
     61 H23         7.1061    7.2537   -5.5124 H         1 <0>         0.0697
     62 H24         4.7253    3.9276   -2.7453 H         1 <0>         0.0843
     63 H25         1.6405    1.0972    0.3052 H         1 <0>         0.0831
     64 H26         4.5381    8.8614   -0.8937 H         1 <0>         0.0704
     65 H27         3.6462    8.7482   -2.3975 H         1 <0>         0.0718
     66 H28         5.2579    4.9142    2.6804 H         1 <0>         0.0606
     67 H29         5.4809    5.7546    1.1500 H         1 <0>         0.0458
     68 H30         7.2000    6.0392    3.6534 H         1 <0>         0.0375
     69 H31         7.5258    6.8807    2.1417 H         1 <0>         0.0392
     70 H32         7.4599    3.7926    2.4354 H         1 <0>         0.0606
     71 H33         7.7645    4.6634    0.9347 H         1 <0>         0.0579
     72 H34         4.9986    7.1962    3.8630 H         1 <0>         0.0571
     73 H35         5.2784    8.0349    2.3297 H         1 <0>         0.0503
     74 H36         7.0421    2.3587    0.4881 H         1 <0>         0.0993
     75 H37         7.7703    7.9574   -2.2937 H         1 <0>         0.3700
     76 H38         6.9090    8.4964   -0.8720 H         1 <0>         0.3660
     77 H39         5.9996    9.3711    4.3277 H         1 <0>         0.3465
     78 H40         7.4997    8.7018    3.7315 H         1 <0>         0.3446
     79 H41         3.0357    3.4942    1.2556 H         1 <0>         0.3148
     80 H42         4.8120    3.9176   -0.5391 H         1 <0>         0.3220
@<TRIPOS>BOND
     1    1    2 ar
     2    1    3 ar
     3    2    4 ar
     4    3    5 ar
     5    4    6 ar
     6    5    6 ar
     7    6   23 1
     8    7   22 1
     9    7   29 am
    10    7   35 2
    11    8    9 1
    12    8   28 1
    13    8   36 2
    14    9   33 am
    15    9   37 2
    16   10   20 1
    17   10   34 am
    18   10   38 2
    19   11   12 1
    20   11   13 1
    21   12   14 1
    22   13   15 1
    23   14   21 1
    24   15   21 1
    25   16   18 1
    26   16   20 1
    27   17   19 1
    28   17   22 1
    29   18   30 1
    30   19   30 1
    31   20   29 1
    32   21   33 1
    33   22   23 1
    34   22   31 1
    35   24   25 1
    36   24   26 1
    37   25   27 1
    38   26   28 1
    39   27   32 1
    40   28   34 1
    41   29   30 1
    42    1   39 1
    43    2   40 1
    44    3   41 1
    45    4   42 1
    46    5   43 1
    47   11   44 1
    48   11   45 1
    49   12   46 1
    50   12   47 1
    51   13   48 1
    52   13   49 1
    53   14   50 1
    54   14   51 1
    55   15   52 1
    56   15   53 1
    57   16   54 1
    58   16   55 1
    59   17   56 1
    60   17   57 1
    61   18   58 1
    62   18   59 1
    63   19   60 1
    64   19   61 1
    65   20   62 1
    66   21   63 1
    67   23   64 1
    68   23   65 1
    69   24   66 1
    70   24   67 1
    71   25   68 1
    72   25   69 1
    73   26   70 1
    74   26   71 1
    75   27   72 1
    76   27   73 1
    77   28   74 1
    78   31   75 1
    79   31   76 1
    80   32   77 1
    81   32   78 1
    82   33   79 1
    83   34   80 1
@<TRIPOS>MOLECULE
1a46_ligand_4
   80    83     0     0     0
SMALL
USER_CHARGES

mmff94s_NoEstat = 80.34
@<TRIPOS>ATOM
      1 C1         11.1945    5.3647   -9.7731 C.ar      1 <0>        -0.1300
      2 C2         11.8337    5.1154   -8.5586 C.ar      1 <0>        -0.1323
      3 C3          9.8873    5.8513   -9.7863 C.ar      1 <0>        -0.1309
      4 C4         11.1656    5.3526   -7.3573 C.ar      1 <0>        -0.1275
      5 C5          9.2192    6.0884   -8.5850 C.ar      1 <0>        -0.1272
      6 C6          9.8628    5.8375   -7.3783 C.ar      1 <0>        -0.0843
      7 C7          7.6425    5.1042   -4.2977 C.2       1 <0>         0.6709
      8 C8          5.2358    2.3798    1.5634 C.2       1 <0>         0.4867
      9 C9          4.0737    1.7586    0.8450 C.2       1 <0>         0.5883
     10 C10         6.5256    3.6321   -1.6689 C.2       1 <0>         0.6572
     11 C11        -0.4193    3.6035    1.7432 C.3       1 <0>        -0.0802
     12 C12         0.2923    2.3853    2.3260 C.3       1 <0>        -0.0765
     13 C13         0.4577    4.3505    0.7419 C.3       1 <0>        -0.0774
     14 C14         0.8140    1.4591    1.2267 C.3       1 <0>        -0.0953
     15 C15         0.9788    3.4196   -0.3539 C.3       1 <0>        -0.0906
     16 C16         4.6595    3.2577   -3.3009 C.3       1 <0>        -0.0871
     17 C17         7.3760    4.3986   -6.7074 C.3       1 <0>        -0.0716
     18 C18         5.3367    2.3027   -4.2819 C.3       1 <0>         0.1333
     19 C19         6.2012    3.5529   -6.1864 C.3       1 <0>         0.1246
     20 C20         5.7868    4.1659   -2.8575 C.3       1 <0>         0.0606
     21 C21         1.6997    2.1861    0.2060 C.3       1 <0>         0.1012
     22 C22         8.3797    4.8486   -5.6198 C.3       1 <0>         0.1554
     23 C23         9.1441    6.0926   -6.0861 C.3       1 <0>        -0.0356
     24 C24         6.0158    5.3379    2.0114 C.3       1 <0>        -0.0795
     25 C25         6.7209    6.4716    2.7653 C.3       1 <0>        -0.1203
     26 C26         6.9719    4.2276    1.5544 C.3       1 <0>        -0.0920
     27 C27         5.7742    7.5909    3.1979 C.3       1 <0>         0.1502
     28 C28         6.2906    3.1130    0.7514 C.3       1 <0>         0.0224
     29 N1          6.7058    4.1331   -3.9791 N.am      1 <0>        -0.3553
     30 N2          6.4777    3.0462   -4.8435 N.3       1 <0>        -0.4320
     31 N3          9.3531    3.7833   -5.3380 N.3       1 <0>        -0.9031
     32 N4          6.5168    8.6391    3.8900 N.3       1 <0>        -0.9068
     33 N5          2.9687    2.5774    0.8237 N.am      1 <0>        -0.5526
     34 N6          5.7762    3.5917   -0.5046 N.am      1 <0>        -0.5576
     35 O1          7.8821    6.0807   -3.5877 O.2       1 <0>        -0.6710
     36 O2          5.3022    2.1819    2.7699 O.2       1 <0>        -0.4901
     37 O3          4.2153    0.6340    0.3935 O.2       1 <0>        -0.5902
     38 O4          7.6924    3.2783   -1.7917 O.2       1 <0>        -0.5833
     39 H1         11.7147    5.1800  -10.7084 H         1 <0>         0.1320
     40 H2         12.8515    4.7366   -8.5485 H         1 <0>         0.1324
     41 H3          9.3897    6.0452  -10.7320 H         1 <0>         0.1328
     42 H4         11.6716    5.1554   -6.4159 H         1 <0>         0.1324
     43 H5          8.2009    6.4675   -8.6050 H         1 <0>         0.1434
     44 H6         -1.3424    3.2805    1.2460 H         1 <0>         0.0405
     45 H7         -0.7142    4.2808    2.5526 H         1 <0>         0.0421
     46 H8          1.1249    2.7162    2.9585 H         1 <0>         0.0362
     47 H9         -0.3974    1.8327    2.9743 H         1 <0>         0.0439
     48 H10        -0.1164    5.1662    0.2877 H         1 <0>         0.0350
     49 H11         1.3017    4.8123    1.2685 H         1 <0>         0.0428
     50 H12         1.3688    0.6319    1.6861 H         1 <0>         0.0663
     51 H13        -0.0418    1.0151    0.7025 H         1 <0>         0.0466
     52 H14         0.1324    3.0884   -0.9690 H         1 <0>         0.0493
     53 H15         1.6506    3.9815   -1.0141 H         1 <0>         0.0520
     54 H16         3.9023    3.8458   -3.8340 H         1 <0>         0.0915
     55 H17         4.1709    2.7289   -2.4768 H         1 <0>         0.0601
     56 H18         7.9078    3.8408   -7.4902 H         1 <0>         0.0688
     57 H19         6.9559    5.2827   -7.2061 H         1 <0>         0.0630
     58 H20         5.7303    1.4383   -3.7336 H         1 <0>         0.0807
     59 H21         4.6390    1.9190   -5.0344 H         1 <0>         0.0380
     60 H22         5.2889    4.1652   -6.1941 H         1 <0>         0.0484
     61 H23         6.0298    2.7205   -6.8794 H         1 <0>         0.0697
     62 H24         5.4651    5.1881   -2.6391 H         1 <0>         0.0843
     63 H25         1.9606    1.5054   -0.6111 H         1 <0>         0.0831
     64 H26         9.8520    6.3858   -5.3087 H         1 <0>         0.0704
     65 H27         8.4405    6.9195   -6.1990 H         1 <0>         0.0718
     66 H28         5.2579    4.9142    2.6804 H         1 <0>         0.0606
     67 H29         5.4809    5.7546    1.1500 H         1 <0>         0.0458
     68 H30         7.2000    6.0392    3.6534 H         1 <0>         0.0375
     69 H31         7.5258    6.8807    2.1417 H         1 <0>         0.0392
     70 H32         7.4599    3.7926    2.4354 H         1 <0>         0.0606
     71 H33         7.7645    4.6634    0.9347 H         1 <0>         0.0579
     72 H34         4.9986    7.1962    3.8630 H         1 <0>         0.0571
     73 H35         5.2784    8.0349    2.3297 H         1 <0>         0.0503
     74 H36         7.0421    2.3587    0.4881 H         1 <0>         0.0993
     75 H37         9.0331    2.8434   -5.3754 H         1 <0>         0.3700
     76 H38        10.2196    4.0460   -4.9287 H         1 <0>         0.3660
     77 H39         5.9996    9.3711    4.3277 H         1 <0>         0.3465
     78 H40         7.4997    8.7018    3.7315 H         1 <0>         0.3446
     79 H41         3.0357    3.4942    1.2556 H         1 <0>         0.3148
     80 H42         4.8120    3.9176   -0.5391 H         1 <0>         0.3220
@<TRIPOS>BOND
     1    1    2 ar
     2    1    3 ar
     3    2    4 ar
     4    3    5 ar
     5    4    6 ar
     6    5    6 ar
     7    6   23 1
     8    7   22 1
     9    7   29 am
    10    7   35 2
    11    8    9 1
    12    8   28 1
    13    8   36 2
    14    9   33 am
    15    9   37 2
    16   10   20 1
    17   10   34 am
    18   10   38 2
    19   11   12 1
    20   11   13 1
    21   12   14 1
    22   13   15 1
    23   14   21 1
    24   15   21 1
    25   16   18 1
    26   16   20 1
    27   17   19 1
    28   17   22 1
    29   18   30 1
    30   19   30 1
    31   20   29 1
    32   21   33 1
    33   22   23 1
    34   22   31 1
    35   24   25 1
    36   24   26 1
    37   25   27 1
    38   26   28 1
    39   27   32 1
    40   28   34 1
    41   29   30 1
    42    1   39 1
    43    2   40 1
    44    3   41 1
    45    4   42 1
    46    5   43 1
    47   11   44 1
    48   11   45 1
    49   12   46 1
    50   12   47 1
    51   13   48 1
    52   13   49 1
    53   14   50 1
    54   14   51 1
    55   15   52 1
    56   15   53 1
    57   16   54 1
    58   16   55 1
    59   17   56 1
    60   17   57 1
    61   18   58 1
    62   18   59 1
    63   19   60 1
    64   19   61 1
    65   20   62 1
    66   21   63 1
    67   23   64 1
    68   23   65 1
    69   24   66 1
    70   24   67 1
    71   25   68 1
    72   25   69 1
    73   26   70 1
    74   26   71 1
    75   27   72 1
    76   27   73 1
    77   28   74 1
    78   31   75 1
    79   31   76 1
    80   32   77 1
    81   32   78 1
    82   33   79 1
    83   34   80 1
@<TRIPOS>MOLECULE
1a46_ligand_5
   80    83     0     0     0
SMALL
USER_CHARGES

mmff94s_NoEstat = 80.38
@<TRIPOS>ATOM
      1 C1         11.1945    5.3647   -9.7731 C.ar      1 <0>        -0.1300
      2 C2         11.8337    5.1154   -8.5586 C.ar      1 <0>        -0.1323
      3 C3          9.8873    5.8513   -9.7863 C.ar      1 <0>        -0.1309
      4 C4         11.1656    5.3526   -7.3573 C.ar      1 <0>        -0.1275
      5 C5          9.2192    6.0884   -8.5850 C.ar      1 <0>        -0.1272
      6 C6          9.8628    5.8375   -7.3783 C.ar      1 <0>        -0.0843
      7 C7          7.6425    5.1042   -4.2977 C.2       1 <0>         0.6709
      8 C8          5.2358    2.3798    1.5634 C.2       1 <0>         0.4867
      9 C9          4.0737    1.7586    0.8450 C.2       1 <0>         0.5883
     10 C10         6.5256    3.6321   -1.6689 C.2       1 <0>         0.6572
     11 C11         4.0644   -3.1378    0.1954 C.3       1 <0>        -0.0802
     12 C12         4.9349   -2.3079   -0.7445 C.3       1 <0>        -0.0765
     13 C13         3.3449   -2.2675    1.2224 C.3       1 <0>        -0.0774
     14 C14         4.1346   -1.1879   -1.4107 C.3       1 <0>        -0.0953
     15 C15         2.5480   -1.1477    0.5515 C.3       1 <0>        -0.0906
     16 C16         4.6595    3.2577   -3.3009 C.3       1 <0>        -0.0871
     17 C17         7.3760    4.3986   -6.7074 C.3       1 <0>        -0.0716
     18 C18         5.3367    2.3027   -4.2819 C.3       1 <0>         0.1333
     19 C19         6.2012    3.5529   -6.1864 C.3       1 <0>         0.1246
     20 C20         5.7868    4.1659   -2.8575 C.3       1 <0>         0.0606
     21 C21         3.4011   -0.2972   -0.3991 C.3       1 <0>         0.1012
     22 C22         8.3797    4.8486   -5.6198 C.3       1 <0>         0.1554
     23 C23         9.1441    6.0926   -6.0861 C.3       1 <0>        -0.0356
     24 C24         6.0158    5.3379    2.0114 C.3       1 <0>        -0.0795
     25 C25         6.7209    6.4716    2.7653 C.3       1 <0>        -0.1203
     26 C26         6.9719    4.2276    1.5544 C.3       1 <0>        -0.0920
     27 C27         5.7742    7.5909    3.1979 C.3       1 <0>         0.1502
     28 C28         6.2906    3.1130    0.7514 C.3       1 <0>         0.0224
     29 N1          6.7058    4.1331   -3.9791 N.am      1 <0>        -0.3553
     30 N2          6.4777    3.0462   -4.8435 N.3       1 <0>        -0.4320
     31 N3          9.3531    3.7833   -5.3380 N.3       1 <0>        -0.9031
     32 N4          6.5168    8.6391    3.8900 N.3       1 <0>        -0.9068
     33 N5          4.3625    0.5037    0.3619 N.am      1 <0>        -0.5526
     34 N6          5.7762    3.5917   -0.5046 N.am      1 <0>        -0.5576
     35 O1          7.8821    6.0807   -3.5877 O.2       1 <0>        -0.6710
     36 O2          5.3022    2.1819    2.7699 O.2       1 <0>        -0.4901
     37 O3          3.0463    2.4099    0.7491 O.2       1 <0>        -0.5902
     38 O4          7.6924    3.2783   -1.7917 O.2       1 <0>        -0.5833
     39 H1         11.7147    5.1800  -10.7084 H         1 <0>         0.1320
     40 H2         12.8515    4.7366   -8.5485 H         1 <0>         0.1324
     41 H3          9.3897    6.0452  -10.7320 H         1 <0>         0.1328
     42 H4         11.6716    5.1554   -6.4159 H         1 <0>         0.1324
     43 H5          8.2009    6.4675   -8.6050 H         1 <0>         0.1434
     44 H6          3.3227   -3.6924   -0.3927 H         1 <0>         0.0405
     45 H7          4.6827   -3.8816    0.7106 H         1 <0>         0.0421
     46 H8          5.7747   -1.8806   -0.1833 H         1 <0>         0.0362
     47 H9          5.3667   -2.9577   -1.5143 H         1 <0>         0.0439
     48 H10         2.6703   -2.8890    1.8223 H         1 <0>         0.0350
     49 H11         4.0784   -1.8371    1.9148 H         1 <0>         0.0428
     50 H12         4.8088   -0.5817   -2.0279 H         1 <0>         0.0663
     51 H13         3.3981   -1.6353   -2.0902 H         1 <0>         0.0466
     52 H14         1.7203   -1.5929   -0.0152 H         1 <0>         0.0493
     53 H15         2.0985   -0.5129    1.3247 H         1 <0>         0.0520
     54 H16         3.9023    3.8458   -3.8340 H         1 <0>         0.0915
     55 H17         4.1709    2.7289   -2.4768 H         1 <0>         0.0601
     56 H18         7.9078    3.8408   -7.4902 H         1 <0>         0.0688
     57 H19         6.9559    5.2827   -7.2061 H         1 <0>         0.0630
     58 H20         5.7303    1.4383   -3.7336 H         1 <0>         0.0807
     59 H21         4.6390    1.9190   -5.0344 H         1 <0>         0.0380
     60 H22         5.2889    4.1652   -6.1941 H         1 <0>         0.0484
     61 H23         6.0298    2.7205   -6.8794 H         1 <0>         0.0697
     62 H24         5.4651    5.1881   -2.6391 H         1 <0>         0.0843
     63 H25         2.7649    0.4200   -0.9282 H         1 <0>         0.0831
     64 H26         9.8520    6.3858   -5.3087 H         1 <0>         0.0704
     65 H27         8.4405    6.9195   -6.1990 H         1 <0>         0.0718
     66 H28         5.2579    4.9142    2.6804 H         1 <0>         0.0606
     67 H29         5.4809    5.7546    1.1500 H         1 <0>         0.0458
     68 H30         7.2000    6.0392    3.6534 H         1 <0>         0.0375
     69 H31         7.5258    6.8807    2.1417 H         1 <0>         0.0392
     70 H32         7.4599    3.7926    2.4354 H         1 <0>         0.0606
     71 H33         7.7645    4.6634    0.9347 H         1 <0>         0.0579
     72 H34         4.9986    7.1962    3.8630 H         1 <0>         0.0571
     73 H35         5.2784    8.0349    2.3297 H         1 <0>         0.0503
     74 H36         7.0421    2.3587    0.4881 H         1 <0>         0.0993
     75 H37         9.0331    2.8434   -5.3754 H         1 <0>         0.3700
     76 H38        10.2196    4.0460   -4.9287 H         1 <0>         0.3660
     77 H39         5.9996    9.3711    4.3277 H         1 <0>         0.3465
     78 H40         7.4997    8.7018    3.7315 H         1 <0>         0.3446
     79 H41         5.2837    0.1150    0.5408 H         1 <0>         0.3148
     80 H42         4.8120    3.9176   -0.5391 H         1 <0>         0.3220
@<TRIPOS>BOND
     1    1    2 ar
     2    1    3 ar
     3    2    4 ar
     4    3    5 ar
     5    4    6 ar
     6    5    6 ar
     7    6   23 1
     8    7   22 1
     9    7   29 am
    10    7   35 2
    11    8    9 1
    12    8   28 1
    13    8   36 2
    14    9   33 am
    15    9   37 2
    16   10   20 1
    17   10   34 am
    18   10   38 2
    19   11   12 1
    20   11   13 1
    21   12   14 1
    22   13   15 1
    23   14   21 1
    24   15   21 1
    25   16   18 1
    26   16   20 1
    27   17   19 1
    28   17   22 1
    29   18   30 1
    30   19   30 1
    31   20   29 1
    32   21   33 1
    33   22   23 1
    34   22   31 1
    35   24   25 1
    36   24   26 1
    37   25   27 1
    38   26   28 1
    39   27   32 1
    40   28   34 1
    41   29   30 1
    42    1   39 1
    43    2   40 1
    44    3   41 1
    45    4   42 1
    46    5   43 1
    47   11   44 1
    48   11   45 1
    49   12   46 1
    50   12   47 1
    51   13   48 1
    52   13   49 1
    53   14   50 1
    54   14   51 1
    55   15   52 1
    56   15   53 1
    57   16   54 1
    58   16   55 1
    59   17   56 1
    60   17   57 1
    61   18   58 1
    62   18   59 1
    63   19   60 1
    64   19   61 1
    65   20   62 1
    66   21   63 1
    67   23   64 1
    68   23   65 1
    69   24   66 1
    70   24   67 1
    71   25   68 1
    72   25   69 1
    73   26   70 1
    74   26   71 1
    75   27   72 1
    76   27   73 1
    77   28   74 1
    78   31   75 1
    79   31   76 1
    80   32   77 1
    81   32   78 1
    82   33   79 1
    83   34   80 1
@<TRIPOS>MOLECULE
1a46_ligand_6
   80    83     0     0     0
SMALL
USER_CHARGES

mmff94s_NoEstat = 80.54
@<TRIPOS>ATOM
      1 C1          9.0003   12.0144   -5.4225 C.ar      1 <0>        -0.1300
      2 C2          9.4537   11.5665   -4.1818 C.ar      1 <0>        -0.1323
      3 C3          7.8120   11.5127   -5.9535 C.ar      1 <0>        -0.1309
      4 C4          8.7189   10.6167   -3.4722 C.ar      1 <0>        -0.1275
      5 C5          7.0772   10.5629   -5.2439 C.ar      1 <0>        -0.1272
      6 C6          7.5355   10.1211   -4.0078 C.ar      1 <0>        -0.0843
      7 C7          6.3757    6.6257   -2.8269 C.2       1 <0>         0.6709
      8 C8          5.2358    2.3798    1.5634 C.2       1 <0>         0.4867
      9 C9          4.0737    1.7586    0.8450 C.2       1 <0>         0.5883
     10 C10         6.5256    3.6321   -1.6689 C.2       1 <0>         0.6572
     11 C11         5.0270   -1.9782   -2.2411 C.3       1 <0>        -0.0802
     12 C12         4.8199   -0.4904   -2.5121 C.3       1 <0>        -0.0765
     13 C13         4.9383   -2.3038   -0.7525 C.3       1 <0>        -0.0774
     14 C14         3.5153    0.0174   -1.8967 C.3       1 <0>        -0.0953
     15 C15         3.6331   -1.7920   -0.1414 C.3       1 <0>        -0.0906
     16 C16         5.8400    3.2307   -4.0468 C.3       1 <0>        -0.0871
     17 C17         7.0291    7.4385   -5.1265 C.3       1 <0>        -0.0716
     18 C18         7.1120    3.6562   -4.7776 C.3       1 <0>         0.1333
     19 C19         6.8955    5.9616   -5.5361 C.3       1 <0>         0.1246
     20 C20         5.7868    4.1659   -2.8575 C.3       1 <0>         0.0606
     21 C21         3.4011   -0.2972   -0.3991 C.3       1 <0>         0.1012
     22 C22         7.1815    7.6752   -3.6055 C.3       1 <0>         0.1554
     23 C23         6.7451    9.0995   -3.2444 C.3       1 <0>        -0.0356
     24 C24         6.0158    5.3379    2.0114 C.3       1 <0>        -0.0795
     25 C25         6.7209    6.4716    2.7653 C.3       1 <0>        -0.1203
     26 C26         6.9719    4.2276    1.5544 C.3       1 <0>        -0.0920
     27 C27         5.7742    7.5909    3.1979 C.3       1 <0>         0.1502
     28 C28         6.2906    3.1130    0.7514 C.3       1 <0>         0.0224
     29 N1          6.5101    5.3360   -3.3173 N.am      1 <0>        -0.3553
     30 N2          7.3084    5.0783   -4.4472 N.3       1 <0>        -0.4320
     31 N3          8.5804    7.4980   -3.1893 N.3       1 <0>        -0.9031
     32 N4          6.5168    8.6391    3.8900 N.3       1 <0>        -0.9068
     33 N5          4.3625    0.5037    0.3619 N.am      1 <0>        -0.5526
     34 N6          5.7762    3.5917   -0.5046 N.am      1 <0>        -0.5576
     35 O1          5.6876    6.9159   -1.8485 O.2       1 <0>        -0.6710
     36 O2          5.3022    2.1819    2.7699 O.2       1 <0>        -0.4901
     37 O3          3.0463    2.4099    0.7491 O.2       1 <0>        -0.5902
     38 O4          7.6924    3.2783   -1.7917 O.2       1 <0>        -0.5833
     39 H1          9.5724   12.7539   -5.9752 H         1 <0>         0.1320
     40 H2         10.3789   11.9573   -3.7685 H         1 <0>         0.1324
     41 H3          7.4591   11.8615   -6.9197 H         1 <0>         0.1328
     42 H4          9.0800   10.2736   -2.5062 H         1 <0>         0.1324
     43 H5          6.1526   10.1776   -5.6655 H         1 <0>         0.1434
     44 H6          4.2675   -2.5545   -2.7839 H         1 <0>         0.0405
     45 H7          6.0024   -2.2918   -2.6299 H         1 <0>         0.0421
     46 H8          5.6667    0.0764   -2.1065 H         1 <0>         0.0362
     47 H9          4.8088   -0.3123   -3.5935 H         1 <0>         0.0439
     48 H10         5.0101   -3.3880   -0.6088 H         1 <0>         0.0350
     49 H11         5.7927   -1.8578   -0.2293 H         1 <0>         0.0428
     50 H12         3.4361    1.0988   -2.0620 H         1 <0>         0.0663
     51 H13         2.6716   -0.4470   -2.4229 H         1 <0>         0.0466
     52 H14         2.7962   -2.3605   -0.5667 H         1 <0>         0.0493
     53 H15         3.6378   -1.9924    0.9369 H         1 <0>         0.0520
     54 H16         4.9736    3.4114   -4.6951 H         1 <0>         0.0915
     55 H17         5.8531    2.1713   -3.7729 H         1 <0>         0.0601
     56 H18         7.8805    7.8879   -5.6555 H         1 <0>         0.0688
     57 H19         6.1391    7.9685   -5.4921 H         1 <0>         0.0630
     58 H20         7.9647    3.0932   -4.3794 H         1 <0>         0.0807
     59 H21         7.0607    3.4497   -5.8523 H         1 <0>         0.0380
     60 H22         5.8545    5.7643   -5.8276 H         1 <0>         0.0484
     61 H23         7.5124    5.7838   -6.4252 H         1 <0>         0.0697
     62 H24         4.7698    4.4250   -2.5496 H         1 <0>         0.0843
     63 H25         2.4111   -0.0062   -0.0327 H         1 <0>         0.0831
     64 H26         6.8700    9.2469   -2.1701 H         1 <0>         0.0704
     65 H27         5.6795    9.2080   -3.4549 H         1 <0>         0.0718
     66 H28         5.2579    4.9142    2.6804 H         1 <0>         0.0606
     67 H29         5.4809    5.7546    1.1500 H         1 <0>         0.0458
     68 H30         7.2000    6.0392    3.6534 H         1 <0>         0.0375
     69 H31         7.5258    6.8807    2.1417 H         1 <0>         0.0392
     70 H32         7.4599    3.7926    2.4354 H         1 <0>         0.0606
     71 H33         7.7645    4.6634    0.9347 H         1 <0>         0.0579
     72 H34         4.9986    7.1962    3.8630 H         1 <0>         0.0571
     73 H35         5.2784    8.0349    2.3297 H         1 <0>         0.0503
     74 H36         7.0421    2.3587    0.4881 H         1 <0>         0.0993
     75 H37         9.1142    6.7979   -3.6499 H         1 <0>         0.3700
     76 H38         8.8693    7.9327   -2.3437 H         1 <0>         0.3660
     77 H39         5.9996    9.3711    4.3277 H         1 <0>         0.3465
     78 H40         7.4997    8.7018    3.7315 H         1 <0>         0.3446
     79 H41         5.2837    0.1150    0.5408 H         1 <0>         0.3148
     80 H42         4.8120    3.9176   -0.5391 H         1 <0>         0.3220
@<TRIPOS>BOND
     1    1    2 ar
     2    1    3 ar
     3    2    4 ar
     4    3    5 ar
     5    4    6 ar
     6    5    6 ar
     7    6   23 1
     8    7   22 1
     9    7   29 am
    10    7   35 2
    11    8    9 1
    12    8   28 1
    13    8   36 2
    14    9   33 am
    15    9   37 2
    16   10   20 1
    17   10   34 am
    18   10   38 2
    19   11   12 1
    20   11   13 1
    21   12   14 1
    22   13   15 1
    23   14   21 1
    24   15   21 1
    25   16   18 1
    26   16   20 1
    27   17   19 1
    28   17   22 1
    29   18   30 1
    30   19   30 1
    31   20   29 1
    32   21   33 1
    33   22   23 1
    34   22   31 1
    35   24   25 1
    36   24   26 1
    37   25   27 1
    38   26   28 1
    39   27   32 1
    40   28   34 1
    41   29   30 1
    42    1   39 1
    43    2   40 1
    44    3   41 1
    45    4   42 1
    46    5   43 1
    47   11   44 1
    48   11   45 1
    49   12   46 1
    50   12   47 1
    51   13   48 1
    52   13   49 1
    53   14   50 1
    54   14   51 1
    55   15   52 1
    56   15   53 1
    57   16   54 1
    58   16   55 1
    59   17   56 1
    60   17   57 1
    61   18   58 1
    62   18   59 1
    63   19   60 1
    64   19   61 1
    65   20   62 1
    66   21   63 1
    67   23   64 1
    68   23   65 1
    69   24   66 1
    70   24   67 1
    71   25   68 1
    72   25   69 1
    73   26   70 1
    74   26   71 1
    75   27   72 1
    76   27   73 1
    77   28   74 1
    78   31   75 1
    79   31   76 1
    80   32   77 1
    81   32   78 1
    82   33   79 1
    83   34   80 1
@<TRIPOS>MOLECULE
1a46_ligand_7
   80    83     0     0     0
SMALL
USER_CHARGES

mmff94s_NoEstat = 80.55
@<TRIPOS>ATOM
      1 C1          9.3778    1.4071  -10.5376 C.ar      1 <0>        -0.1300
      2 C2         10.0902    1.0682   -9.3873 C.ar      1 <0>        -0.1323
      3 C3          8.4252    2.4251  -10.4935 C.ar      1 <0>        -0.1309
      4 C4          9.8499    1.7472   -8.1928 C.ar      1 <0>        -0.1275
      5 C5          8.1849    3.1040   -9.2989 C.ar      1 <0>        -0.1272
      6 C6          8.8988    2.7607   -8.1564 C.ar      1 <0>        -0.0843
      7 C7          7.2708    3.5496   -4.7381 C.2       1 <0>         0.6709
      8 C8          5.2358    2.3798    1.5634 C.2       1 <0>         0.4867
      9 C9          4.0737    1.7586    0.8450 C.2       1 <0>         0.5883
     10 C10         6.2126    3.1256   -1.7338 C.2       1 <0>         0.6572
     11 C11         4.0644   -3.1378    0.1954 C.3       1 <0>        -0.0802
     12 C12         4.9349   -2.3079   -0.7445 C.3       1 <0>        -0.0765
     13 C13         3.3449   -2.2675    1.2224 C.3       1 <0>        -0.0774
     14 C14         4.1346   -1.1879   -1.4107 C.3       1 <0>        -0.0953
     15 C15         2.5480   -1.1477    0.5515 C.3       1 <0>        -0.0906
     16 C16         4.0677    3.4116   -2.9998 C.3       1 <0>        -0.0871
     17 C17         6.2374    2.7118   -6.8841 C.3       1 <0>        -0.0716
     18 C18         4.0600    2.1270   -3.8260 C.3       1 <0>         0.1333
     19 C19         4.9528    2.5709   -6.0494 C.3       1 <0>         0.1246
     20 C20         5.5372    3.7637   -2.9085 C.3       1 <0>         0.0606
     21 C21         3.4011   -0.2972   -0.3991 C.3       1 <0>         0.1012
     22 C22         7.5393    2.8062   -6.0542 C.3       1 <0>         0.1554
     23 C23         8.6404    3.4910   -6.8715 C.3       1 <0>        -0.0356
     24 C24         6.0158    5.3379    2.0114 C.3       1 <0>        -0.0795
     25 C25         6.7209    6.4716    2.7653 C.3       1 <0>        -0.1203
     26 C26         6.9719    4.2276    1.5544 C.3       1 <0>        -0.0920
     27 C27         5.7742    7.5909    3.1979 C.3       1 <0>         0.1502
     28 C28         6.2906    3.1130    0.7514 C.3       1 <0>         0.0224
     29 N1          6.1017    3.1624   -4.1017 N.am      1 <0>        -0.3553
     30 N2          5.2634    2.1873   -4.6736 N.3       1 <0>        -0.4320
     31 N3          8.0097    1.4670   -5.6708 N.3       1 <0>        -0.9031
     32 N4          6.5168    8.6391    3.8900 N.3       1 <0>        -0.9068
     33 N5          4.3625    0.5037    0.3619 N.am      1 <0>        -0.5526
     34 N6          5.7762    3.5917   -0.5046 N.am      1 <0>        -0.5576
     35 O1          8.0408    4.4006   -4.2931 O.2       1 <0>        -0.6710
     36 O2          5.3022    2.1819    2.7699 O.2       1 <0>        -0.4901
     37 O3          3.0463    2.4099    0.7491 O.2       1 <0>        -0.5902
     38 O4          7.0689    2.2691   -1.9210 O.2       1 <0>        -0.5833
     39 H1          9.5648    0.8784  -11.4677 H         1 <0>         0.1320
     40 H2         10.8319    0.2756   -9.4218 H         1 <0>         0.1324
     41 H3          7.8704    2.6887  -11.3892 H         1 <0>         0.1328
     42 H4         10.4098    1.4763   -7.3016 H         1 <0>         0.1324
     43 H5          7.4407    3.8957   -9.2740 H         1 <0>         0.1434
     44 H6          3.3227   -3.6924   -0.3927 H         1 <0>         0.0405
     45 H7          4.6827   -3.8816    0.7106 H         1 <0>         0.0421
     46 H8          5.7747   -1.8806   -0.1833 H         1 <0>         0.0362
     47 H9          5.3667   -2.9577   -1.5143 H         1 <0>         0.0439
     48 H10         2.6703   -2.8890    1.8223 H         1 <0>         0.0350
     49 H11         4.0784   -1.8371    1.9148 H         1 <0>         0.0428
     50 H12         4.8088   -0.5817   -2.0279 H         1 <0>         0.0663
     51 H13         3.3981   -1.6353   -2.0902 H         1 <0>         0.0466
     52 H14         1.7203   -1.5929   -0.0152 H         1 <0>         0.0493
     53 H15         2.0985   -0.5129    1.3247 H         1 <0>         0.0520
     54 H16         3.5352    4.1976   -3.5496 H         1 <0>         0.0915
     55 H17         3.5853    3.2820   -2.0262 H         1 <0>         0.0601
     56 H18         6.3096    1.8704   -7.5867 H         1 <0>         0.0688
     57 H19         6.1343    3.6107   -7.5070 H         1 <0>         0.0630
     58 H20         4.1583    1.2642   -3.1562 H         1 <0>         0.0807
     59 H21         3.1259    1.9993   -4.3842 H         1 <0>         0.0380
     60 H22         4.4028    3.5219   -6.0765 H         1 <0>         0.0484
     61 H23         4.3072    1.8183   -6.5178 H         1 <0>         0.0697
     62 H24         5.7284    4.8402   -2.8795 H         1 <0>         0.0843
     63 H25         2.7649    0.4200   -0.9282 H         1 <0>         0.0831
     64 H26         9.5506    3.5379   -6.2709 H         1 <0>         0.0704
     65 H27         8.3431    4.5219   -7.0731 H         1 <0>         0.0718
     66 H28         5.2579    4.9142    2.6804 H         1 <0>         0.0606
     67 H29         5.4809    5.7546    1.1500 H         1 <0>         0.0458
     68 H30         7.2000    6.0392    3.6534 H         1 <0>         0.0375
     69 H31         7.5258    6.8807    2.1417 H         1 <0>         0.0392
     70 H32         7.4599    3.7926    2.4354 H         1 <0>         0.0606
     71 H33         7.7645    4.6634    0.9347 H         1 <0>         0.0579
     72 H34         4.9986    7.1962    3.8630 H         1 <0>         0.0571
     73 H35         5.2784    8.0349    2.3297 H         1 <0>         0.0503
     74 H36         7.0421    2.3587    0.4881 H         1 <0>         0.0993
     75 H37         7.3242    0.7786   -5.4626 H         1 <0>         0.3700
     76 H38         8.9706    1.3637   -5.4396 H         1 <0>         0.3660
     77 H39         5.9996    9.3711    4.3277 H         1 <0>         0.3465
     78 H40         7.4997    8.7018    3.7315 H         1 <0>         0.3446
     79 H41         5.2837    0.1150    0.5408 H         1 <0>         0.3148
     80 H42         5.0545    4.3100   -0.4888 H         1 <0>         0.3220
@<TRIPOS>BOND
     1    1    2 ar
     2    1    3 ar
     3    2    4 ar
     4    3    5 ar
     5    4    6 ar
     6    5    6 ar
     7    6   23 1
     8    7   22 1
     9    7   29 am
    10    7   35 2
    11    8    9 1
    12    8   28 1
    13    8   36 2
    14    9   33 am
    15    9   37 2
    16   10   20 1
    17   10   34 am
    18   10   38 2
    19   11   12 1
    20   11   13 1
    21   12   14 1
    22   13   15 1
    23   14   21 1
    24   15   21 1
    25   16   18 1
    26   16   20 1
    27   17   19 1
    28   17   22 1
    29   18   30 1
    30   19   30 1
    31   20   29 1
    32   21   33 1
    33   22   23 1
    34   22   31 1
    35   24   25 1
    36   24   26 1
    37   25   27 1
    38   26   28 1
    39   27   32 1
    40   28   34 1
    41   29   30 1
    42    1   39 1
    43    2   40 1
    44    3   41 1
    45    4   42 1
    46    5   43 1
    47   11   44 1
    48   11   45 1
    49   12   46 1
    50   12   47 1
    51   13   48 1
    52   13   49 1
    53   14   50 1
    54   14   51 1
    55   15   52 1
    56   15   53 1
    57   16   54 1
    58   16   55 1
    59   17   56 1
    60   17   57 1
    61   18   58 1
    62   18   59 1
    63   19   60 1
    64   19   61 1
    65   20   62 1
    66   21   63 1
    67   23   64 1
    68   23   65 1
    69   24   66 1
    70   24   67 1
    71   25   68 1
    72   25   69 1
    73   26   70 1
    74   26   71 1
    75   27   72 1
    76   27   73 1
    77   28   74 1
    78   31   75 1
    79   31   76 1
    80   32   77 1
    81   32   78 1
    82   33   79 1
    83   34   80 1
@<TRIPOS>MOLECULE
1a46_ligand_8
   80    83     0     0     0
SMALL
USER_CHARGES

mmff94s_NoEstat = 80.63
@<TRIPOS>ATOM
      1 C1         11.2165    5.1344   -9.5699 C.ar      1 <0>        -0.1300
      2 C2         11.8039    4.7828   -8.3546 C.ar      1 <0>        -0.1323
      3 C3          9.9328    5.6797   -9.5922 C.ar      1 <0>        -0.1309
      4 C4         11.1077    4.9765   -7.1616 C.ar      1 <0>        -0.1275
      5 C5          9.2366    5.8734   -8.3991 C.ar      1 <0>        -0.1272
      6 C6          9.8285    5.5206   -7.1916 C.ar      1 <0>        -0.0843
      7 C7          7.4784    4.7027   -4.2310 C.2       1 <0>         0.6709
      8 C8          5.2358    2.3798    1.5634 C.2       1 <0>         0.4867
      9 C9          4.0737    1.7586    0.8450 C.2       1 <0>         0.5883
     10 C10         6.2126    3.1256   -1.7338 C.2       1 <0>         0.6572
     11 C11         4.0644   -3.1378    0.1954 C.3       1 <0>        -0.0802
     12 C12         4.9349   -2.3079   -0.7445 C.3       1 <0>        -0.0765
     13 C13         3.3449   -2.2675    1.2224 C.3       1 <0>        -0.0774
     14 C14         4.1346   -1.1879   -1.4107 C.3       1 <0>        -0.0953
     15 C15         2.5480   -1.1477    0.5515 C.3       1 <0>        -0.0906
     16 C16         4.3868    2.9365   -3.4414 C.3       1 <0>        -0.0871
     17 C17         7.2608    4.1580   -6.6868 C.3       1 <0>        -0.0716
     18 C18         5.0537    2.0131   -4.4592 C.3       1 <0>         0.1333
     19 C19         6.0339    3.3363   -6.2552 C.3       1 <0>         0.1246
     20 C20         5.5372    3.7637   -2.9085 C.3       1 <0>         0.0606
     21 C21         3.4011   -0.2972   -0.3991 C.3       1 <0>         0.1012
     22 C22         8.2469    4.4948   -5.5436 C.3       1 <0>         0.1554
     23 C23         9.0796    5.7289   -5.9083 C.3       1 <0>        -0.0356
     24 C24         8.0800    4.9598    0.7851 C.3       1 <0>        -0.0795
     25 C25         8.7880    6.0338    1.6192 C.3       1 <0>        -0.1203
     26 C26         6.9719    4.2276    1.5544 C.3       1 <0>        -0.0920
     27 C27         9.9095    6.7454    0.8629 C.3       1 <0>         0.1502
     28 C28         6.2906    3.1130    0.7514 C.3       1 <0>         0.0224
     29 N1          6.4904    3.7576   -4.0019 N.am      1 <0>        -0.3553
     30 N2          6.2438    2.7368   -4.9387 N.3       1 <0>        -0.4320
     31 N3          9.1632    3.3713   -5.2994 N.3       1 <0>        -0.9031
     32 N4         10.5470    7.7366    1.7233 N.3       1 <0>        -0.9068
     33 N5          4.3625    0.5037    0.3619 N.am      1 <0>        -0.5526
     34 N6          5.7762    3.5917   -0.5046 N.am      1 <0>        -0.5576
     35 O1          7.7368    5.6223   -3.4546 O.2       1 <0>        -0.6710
     36 O2          5.3022    2.1819    2.7699 O.2       1 <0>        -0.4901
     37 O3          3.0463    2.4099    0.7491 O.2       1 <0>        -0.5902
     38 O4          7.0689    2.2691   -1.9210 O.2       1 <0>        -0.5833
     39 H1         11.7586    4.9835  -10.4989 H         1 <0>         0.1320
     40 H2         12.8034    4.3582   -8.3374 H         1 <0>         0.1324
     41 H3          9.4755    5.9533  -10.5385 H         1 <0>         0.1328
     42 H4         11.5733    4.6996   -6.2195 H         1 <0>         0.1324
     43 H5          8.2369    6.2989   -8.4262 H         1 <0>         0.1434
     44 H6          3.3227   -3.6924   -0.3927 H         1 <0>         0.0405
     45 H7          4.6827   -3.8816    0.7106 H         1 <0>         0.0421
     46 H8          5.7747   -1.8806   -0.1833 H         1 <0>         0.0362
     47 H9          5.3667   -2.9577   -1.5143 H         1 <0>         0.0439
     48 H10         2.6703   -2.8890    1.8223 H         1 <0>         0.0350
     49 H11         4.0784   -1.8371    1.9148 H         1 <0>         0.0428
     50 H12         4.8088   -0.5817   -2.0279 H         1 <0>         0.0663
     51 H13         3.3981   -1.6353   -2.0902 H         1 <0>         0.0466
     52 H14         1.7203   -1.5929   -0.0152 H         1 <0>         0.0493
     53 H15         2.0985   -0.5129    1.3247 H         1 <0>         0.0520
     54 H16         3.6738    3.5897   -3.9595 H         1 <0>         0.0915
     55 H17         3.8488    2.3812   -2.6670 H         1 <0>         0.0601
     56 H18         7.7933    3.6252   -7.4865 H         1 <0>         0.0688
     57 H19         6.8963    5.0889   -7.1420 H         1 <0>         0.0630
     58 H20         5.3910    1.1000   -3.9542 H         1 <0>         0.0807
     59 H21         4.3651    1.7081   -5.2548 H         1 <0>         0.0380
     60 H22         5.1498    3.9888   -6.2523 H         1 <0>         0.0484
     61 H23         5.8493    2.5563   -7.0035 H         1 <0>         0.0697
     62 H24         5.2534    4.7844   -2.6367 H         1 <0>         0.0843
     63 H25         2.7649    0.4200   -0.9282 H         1 <0>         0.0831
     64 H26         9.7736    5.9418   -5.0932 H         1 <0>         0.0704
     65 H27         8.4167    6.5923   -5.9906 H         1 <0>         0.0718
     66 H28         7.6494    5.4516   -0.0948 H         1 <0>         0.0606
     67 H29         8.8216    4.2418    0.4157 H         1 <0>         0.0458
     68 H30         8.0356    6.7709    1.9287 H         1 <0>         0.0375
     69 H31         9.1825    5.5824    2.5383 H         1 <0>         0.0392
     70 H32         6.2171    4.9575    1.8728 H         1 <0>         0.0606
     71 H33         7.3929    3.7874    2.4660 H         1 <0>         0.0579
     72 H34         9.5108    7.2416   -0.0285 H         1 <0>         0.0571
     73 H35        10.6706    6.0303    0.5375 H         1 <0>         0.0503
     74 H36         7.0421    2.3587    0.4881 H         1 <0>         0.0993
     75 H37         8.8040    2.4509   -5.4050 H         1 <0>         0.3700
     76 H38        10.0264    3.5689   -4.8487 H         1 <0>         0.3660
     77 H39        11.2163    8.3531    1.3147 H         1 <0>         0.3465
     78 H40        10.4498    7.6340    2.7108 H         1 <0>         0.3446
     79 H41         5.2837    0.1150    0.5408 H         1 <0>         0.3148
     80 H42         5.0545    4.3100   -0.4888 H         1 <0>         0.3220
@<TRIPOS>BOND
     1    1    2 ar
     2    1    3 ar
     3    2    4 ar
     4    3    5 ar
     5    4    6 ar
     6    5    6 ar
     7    6   23 1
     8    7   22 1
     9    7   29 am
    10    7   35 2
    11    8    9 1
    12    8   28 1
    13    8   36 2
    14    9   33 am
    15    9   37 2
    16   10   20 1
    17   10   34 am
    18   10   38 2
    19   11   12 1
    20   11   13 1
    21   12   14 1
    22   13   15 1
    23   14   21 1
    24   15   21 1
    25   16   18 1
    26   16   20 1
    27   17   19 1
    28   17   22 1
    29   18   30 1
    30   19   30 1
    31   20   29 1
    32   21   33 1
    33   22   23 1
    34   22   31 1
    35   24   25 1
    36   24   26 1
    37   25   27 1
    38   26   28 1
    39   27   32 1
    40   28   34 1
    41   29   30 1
    42    1   39 1
    43    2   40 1
    44    3   41 1
    45    4   42 1
    46    5   43 1
    47   11   44 1
    48   11   45 1
    49   12   46 1
    50   12   47 1
    51   13   48 1
    52   13   49 1
    53   14   50 1
    54   14   51 1
    55   15   52 1
    56   15   53 1
    57   16   54 1
    58   16   55 1
    59   17   56 1
    60   17   57 1
    61   18   58 1
    62   18   59 1
    63   19   60 1
    64   19   61 1
    65   20   62 1
    66   21   63 1
    67   23   64 1
    68   23   65 1
    69   24   66 1
    70   24   67 1
    71   25   68 1
    72   25   69 1
    73   26   70 1
    74   26   71 1
    75   27   72 1
    76   27   73 1
    77   28   74 1
    78   31   75 1
    79   31   76 1
    80   32   77 1
    81   32   78 1
    82   33   79 1
    83   34   80 1
@<TRIPOS>MOLECULE
1a46_ligand_9
   80    83     0     0     0
SMALL
USER_CHARGES

mmff94s_NoEstat = 80.69
@<TRIPOS>ATOM
      1 C1         11.0121    9.2104   -7.9325 C.ar      1 <0>        -0.1300
      2 C2         11.5385    8.8832   -6.6829 C.ar      1 <0>        -0.1323
      3 C3          9.6345    9.1559   -8.1449 C.ar      1 <0>        -0.1309
      4 C4         10.6874    8.5015   -5.6458 C.ar      1 <0>        -0.1275
      5 C5          8.7834    8.7742   -7.1078 C.ar      1 <0>        -0.1272
      6 C6          9.3154    8.4495   -5.8650 C.ar      1 <0>        -0.0843
      7 C7          7.2411    6.0968   -3.6024 C.2       1 <0>         0.6709
      8 C8          5.2358    2.3798    1.5634 C.2       1 <0>         0.4867
      9 C9          4.0737    1.7586    0.8450 C.2       1 <0>         0.5883
     10 C10         6.5256    3.6321   -1.6689 C.2       1 <0>         0.6572
     11 C11         4.0644   -3.1378    0.1954 C.3       1 <0>        -0.0802
     12 C12         4.9349   -2.3079   -0.7445 C.3       1 <0>        -0.0765
     13 C13         3.3449   -2.2675    1.2224 C.3       1 <0>        -0.0774
     14 C14         4.1346   -1.1879   -1.4107 C.3       1 <0>        -0.0953
     15 C15         2.5480   -1.1477    0.5515 C.3       1 <0>        -0.0906
     16 C16         5.2113    3.0694   -3.7284 C.3       1 <0>        -0.0871
     17 C17         7.6012    6.0599   -6.1012 C.3       1 <0>        -0.0716
     18 C18         6.3446    2.7580   -4.7039 C.3       1 <0>         0.1333
     19 C19         6.8355    4.7264   -6.0536 C.3       1 <0>         0.1246
     20 C20         5.7868    4.1659   -2.8575 C.3       1 <0>         0.0606
     21 C21         3.4011   -0.2972   -0.3991 C.3       1 <0>         0.1012
     22 C22         8.1773    6.5224   -4.7422 C.3       1 <0>         0.1554
     23 C23         8.4000    8.0389   -4.7494 C.3       1 <0>        -0.0356
     24 C24         6.0158    5.3379    2.0114 C.3       1 <0>        -0.0795
     25 C25         6.7209    6.4716    2.7653 C.3       1 <0>        -0.1203
     26 C26         6.9719    4.2276    1.5544 C.3       1 <0>        -0.0920
     27 C27         5.7742    7.5909    3.1979 C.3       1 <0>         0.1502
     28 C28         6.2906    3.1130    0.7514 C.3       1 <0>         0.0224
     29 N1          6.7674    4.7991   -3.7183 N.am      1 <0>        -0.3553
     30 N2          7.1280    4.0001   -4.8193 N.3       1 <0>        -0.4320
     31 N3          9.4643    5.8648   -4.4722 N.3       1 <0>        -0.9031
     32 N4          6.5168    8.6391    3.8900 N.3       1 <0>        -0.9068
     33 N5          4.3625    0.5037    0.3619 N.am      1 <0>        -0.5526
     34 N6          5.7762    3.5917   -0.5046 N.am      1 <0>        -0.5576
     35 O1          6.9567    6.8465   -2.6685 O.2       1 <0>        -0.6710
     36 O2          5.3022    2.1819    2.7699 O.2       1 <0>        -0.4901
     37 O3          3.0463    2.4099    0.7491 O.2       1 <0>        -0.5902
     38 O4          7.6924    3.2783   -1.7917 O.2       1 <0>        -0.5833
     39 H1         11.6747    9.5075   -8.7400 H         1 <0>         0.1320
     40 H2         12.6111    8.9257   -6.5176 H         1 <0>         0.1324
     41 H3          9.2248    9.4105   -9.1180 H         1 <0>         0.1328
     42 H4         11.1066    8.2484   -4.6756 H         1 <0>         0.1324
     43 H5          7.7115    8.7346   -7.2826 H         1 <0>         0.1434
     44 H6          3.3227   -3.6924   -0.3927 H         1 <0>         0.0405
     45 H7          4.6827   -3.8816    0.7106 H         1 <0>         0.0421
     46 H8          5.7747   -1.8806   -0.1833 H         1 <0>         0.0362
     47 H9          5.3667   -2.9577   -1.5143 H         1 <0>         0.0439
     48 H10         2.6703   -2.8890    1.8223 H         1 <0>         0.0350
     49 H11         4.0784   -1.8371    1.9148 H         1 <0>         0.0428
     50 H12         4.8088   -0.5817   -2.0279 H         1 <0>         0.0663
     51 H13         3.3981   -1.6353   -2.0902 H         1 <0>         0.0466
     52 H14         1.7203   -1.5929   -0.0152 H         1 <0>         0.0493
     53 H15         2.0985   -0.5129    1.3247 H         1 <0>         0.0520
     54 H16         4.3507    3.4578   -4.2870 H         1 <0>         0.0915
     55 H17         4.8908    2.1856   -3.1683 H         1 <0>         0.0601
     56 H18         8.4120    5.9885   -6.8390 H         1 <0>         0.0688
     57 H19         6.9149    6.8257   -6.4876 H         1 <0>         0.0630
     58 H20         6.9926    1.9855   -4.2725 H         1 <0>         0.0807
     59 H21         5.9735    2.3729   -5.6602 H         1 <0>         0.0380
     60 H22         5.7592    4.9288   -6.1435 H         1 <0>         0.0484
     61 H23         7.1185    4.1245   -6.9255 H         1 <0>         0.0697
     62 H24         5.0406    4.8864   -2.5107 H         1 <0>         0.0843
     63 H25         2.7649    0.4200   -0.9282 H         1 <0>         0.0831
     64 H26         8.8151    8.3408   -3.7861 H         1 <0>         0.0704
     65 H27         7.4343    8.5386   -4.8464 H         1 <0>         0.0718
     66 H28         5.2579    4.9142    2.6804 H         1 <0>         0.0606
     67 H29         5.4809    5.7546    1.1500 H         1 <0>         0.0458
     68 H30         7.2000    6.0392    3.6534 H         1 <0>         0.0375
     69 H31         7.5258    6.8807    2.1417 H         1 <0>         0.0392
     70 H32         7.4599    3.7926    2.4354 H         1 <0>         0.0606
     71 H33         7.7645    4.6634    0.9347 H         1 <0>         0.0579
     72 H34         4.9986    7.1962    3.8630 H         1 <0>         0.0571
     73 H35         5.2784    8.0349    2.3297 H         1 <0>         0.0503
     74 H36         7.0421    2.3587    0.4881 H         1 <0>         0.0993
     75 H37         9.5764    4.9261   -4.7778 H         1 <0>         0.3700
     76 H38        10.0811    6.3037   -3.8286 H         1 <0>         0.3660
     77 H39         5.9996    9.3711    4.3277 H         1 <0>         0.3465
     78 H40         7.4997    8.7018    3.7315 H         1 <0>         0.3446
     79 H41         5.2837    0.1150    0.5408 H         1 <0>         0.3148
     80 H42         4.8120    3.9176   -0.5391 H         1 <0>         0.3220
@<TRIPOS>BOND
     1    1    2 ar
     2    1    3 ar
     3    2    4 ar
     4    3    5 ar
     5    4    6 ar
     6    5    6 ar
     7    6   23 1
     8    7   22 1
     9    7   29 am
    10    7   35 2
    11    8    9 1
    12    8   28 1
    13    8   36 2
    14    9   33 am
    15    9   37 2
    16   10   20 1
    17   10   34 am
    18   10   38 2
    19   11   12 1
    20   11   13 1
    21   12   14 1
    22   13   15 1
    23   14   21 1
    24   15   21 1
    25   16   18 1
    26   16   20 1
    27   17   19 1
    28   17   22 1
    29   18   30 1
    30   19   30 1
    31   20   29 1
    32   21   33 1
    33   22   23 1
    34   22   31 1
    35   24   25 1
    36   24   26 1
    37   25   27 1
    38   26   28 1
    39   27   32 1
    40   28   34 1
    41   29   30 1
    42    1   39 1
    43    2   40 1
    44    3   41 1
    45    4   42 1
    46    5   43 1
    47   11   44 1
    48   11   45 1
    49   12   46 1
    50   12   47 1
    51   13   48 1
    52   13   49 1
    53   14   50 1
    54   14   51 1
    55   15   52 1
    56   15   53 1
    57   16   54 1
    58   16   55 1
    59   17   56 1
    60   17   57 1
    61   18   58 1
    62   18   59 1
    63   19   60 1
    64   19   61 1
    65   20   62 1
    66   21   63 1
    67   23   64 1
    68   23   65 1
    69   24   66 1
    70   24   67 1
    71   25   68 1
    72   25   69 1
    73   26   70 1
    74   26   71 1
    75   27   72 1
    76   27   73 1
    77   28   74 1
    78   31   75 1
    79   31   76 1
    80   32   77 1
    81   32   78 1
    82   33   79 1
    83   34   80 1
@<TRIPOS>MOLECULE
1a46_ligand_10
   80    83     0     0     0
SMALL
USER_CHARGES

mmff94s_NoEstat = 80.76
@<TRIPOS>ATOM
      1 C1         -2.6445   10.2618   -2.2387 C.ar      1 <0>        -0.1300
      2 C2         -2.3767    9.6884   -0.9957 C.ar      1 <0>        -0.1323
      3 C3         -2.1497    9.6701   -3.4009 C.ar      1 <0>        -0.1309
      4 C4         -1.6141    8.5233   -0.9148 C.ar      1 <0>        -0.1275
      5 C5         -1.3871    8.5049   -3.3201 C.ar      1 <0>        -0.1272
      6 C6         -1.1243    7.9391   -2.0776 C.ar      1 <0>        -0.0843
      7 C7          2.0326    5.7272   -1.7627 C.2       1 <0>         0.6709
      8 C8          5.2358    2.3798    1.5634 C.2       1 <0>         0.4867
      9 C9          4.0737    1.7586    0.8450 C.2       1 <0>         0.5883
     10 C10         4.7954    4.5647   -0.6048 C.2       1 <0>         0.6572
     11 C11         4.9178   -0.1813   -3.6183 C.3       1 <0>        -0.0802
     12 C12         4.3601    1.1806   -3.2131 C.3       1 <0>        -0.0765
     13 C13         5.2798   -1.0327   -2.4042 C.3       1 <0>        -0.0774
     14 C14         3.1836    1.0419   -2.2460 C.3       1 <0>        -0.0953
     15 C15         4.1009   -1.1664   -1.4392 C.3       1 <0>        -0.0906
     16 C16         5.5346    5.5870   -2.7713 C.3       1 <0>        -0.0871
     17 C17         1.6625    7.8714   -3.0437 C.3       1 <0>        -0.0716
     18 C18         5.3303    7.0689   -2.4625 C.3       1 <0>         0.1333
     19 C19         3.1731    7.8019   -3.3266 C.3       1 <0>         0.1246
     20 C20         4.4137    4.9104   -2.0113 C.3       1 <0>         0.0606
     21 C21         3.5216    0.1899   -1.0153 C.3       1 <0>         0.1012
     22 C22         1.1885    7.0064   -1.8522 C.3       1 <0>         0.1554
     23 C23        -0.3040    6.6858   -1.9906 C.3       1 <0>        -0.0356
     24 C24         8.0800    4.9598    0.7851 C.3       1 <0>        -0.0795
     25 C25         8.7880    6.0338    1.6192 C.3       1 <0>        -0.1203
     26 C26         6.9719    4.2276    1.5544 C.3       1 <0>        -0.0920
     27 C27         9.9095    6.7454    0.8629 C.3       1 <0>         0.1502
     28 C28         6.2906    3.1130    0.7514 C.3       1 <0>         0.0224
     29 N1          3.3921    5.9372   -1.9343 N.am      1 <0>        -0.3553
     30 N2          3.8913    7.2279   -2.1903 N.3       1 <0>        -0.4320
     31 N3          1.3958    7.7147   -0.5806 N.3       1 <0>        -0.9031
     32 N4         10.5470    7.7366    1.7233 N.3       1 <0>        -0.9068
     33 N5          4.4695    0.8988   -0.1529 N.am      1 <0>        -0.5526
     34 N6          5.7762    3.5917   -0.5046 N.am      1 <0>        -0.5576
     35 O1          1.5345    4.6231   -1.5437 O.2       1 <0>        -0.6710
     36 O2          5.3022    2.1819    2.7699 O.2       1 <0>        -0.4901
     37 O3          2.9489    2.0822    1.1900 O.2       1 <0>        -0.5902
     38 O4          4.2448    5.1367    0.3286 O.2       1 <0>        -0.5833
     39 H1         -3.2382   11.1691   -2.3016 H         1 <0>         0.1320
     40 H2         -2.7620   10.1493   -0.0908 H         1 <0>         0.1324
     41 H3         -2.3582   10.1168   -4.3687 H         1 <0>         0.1328
     42 H4         -1.4106    8.0836    0.0580 H         1 <0>         0.1324
     43 H5         -1.0058    8.0510   -4.2309 H         1 <0>         0.1434
     44 H6          4.1729   -0.7122   -4.2240 H         1 <0>         0.0405
     45 H7          5.8027   -0.0446   -4.2501 H         1 <0>         0.0421
     46 H8          5.1542    1.7772   -2.7482 H         1 <0>         0.0362
     47 H9          4.0371    1.7257   -4.1075 H         1 <0>         0.0439
     48 H10         5.5975   -2.0280   -2.7352 H         1 <0>         0.0350
     49 H11         6.1350   -0.5837   -1.8849 H         1 <0>         0.0428
     50 H12         2.8539    2.0404   -1.9345 H         1 <0>         0.0663
     51 H13         2.3414    0.5806   -2.7774 H         1 <0>         0.0466
     52 H14         3.3114   -1.7547   -1.9241 H         1 <0>         0.0493
     53 H15         4.4214   -1.7321   -0.5559 H         1 <0>         0.0520
     54 H16         5.4011    5.4209   -3.8475 H         1 <0>         0.0915
     55 H17         6.5319    5.2374   -2.4876 H         1 <0>         0.0601
     56 H18         1.3705    8.9173   -2.8778 H         1 <0>         0.0688
     57 H19         1.1370    7.5576   -3.9559 H         1 <0>         0.0630
     58 H20         5.8802    7.3284   -1.5498 H         1 <0>         0.0807
     59 H21         5.7080    7.7145   -3.2631 H         1 <0>         0.0380
     60 H22         3.3395    7.2079   -4.2360 H         1 <0>         0.0484
     61 H23         3.5406    8.8134   -3.5374 H         1 <0>         0.0697
     62 H24         4.0335    4.0099   -2.5019 H         1 <0>         0.0843
     63 H25         2.6216    0.0369   -0.4106 H         1 <0>         0.0831
     64 H26        -0.6181    6.0842   -1.1357 H         1 <0>         0.0704
     65 H27        -0.4536    6.0709   -2.8800 H         1 <0>         0.0718
     66 H28         7.6494    5.4516   -0.0948 H         1 <0>         0.0606
     67 H29         8.8216    4.2418    0.4157 H         1 <0>         0.0458
     68 H30         8.0356    6.7709    1.9287 H         1 <0>         0.0375
     69 H31         9.1825    5.5824    2.5383 H         1 <0>         0.0392
     70 H32         6.2171    4.9575    1.8728 H         1 <0>         0.0606
     71 H33         7.3929    3.7874    2.4660 H         1 <0>         0.0579
     72 H34         9.5108    7.2416   -0.0285 H         1 <0>         0.0571
     73 H35        10.6706    6.0303    0.5375 H         1 <0>         0.0503
     74 H36         7.0421    2.3587    0.4881 H         1 <0>         0.0993
     75 H37         2.1998    8.2929   -0.4996 H         1 <0>         0.3700
     76 H38         0.8492    7.4324    0.1998 H         1 <0>         0.3660
     77 H39        11.2163    8.3531    1.3147 H         1 <0>         0.3465
     78 H40        10.4498    7.6340    2.7108 H         1 <0>         0.3446
     79 H41         5.4635    0.7487   -0.2981 H         1 <0>         0.3148
     80 H42         6.1527    3.1949   -1.3636 H         1 <0>         0.3220
@<TRIPOS>BOND
     1    1    2 ar
     2    1    3 ar
     3    2    4 ar
     4    3    5 ar
     5    4    6 ar
     6    5    6 ar
     7    6   23 1
     8    7   22 1
     9    7   29 am
    10    7   35 2
    11    8    9 1
    12    8   28 1
    13    8   36 2
    14    9   33 am
    15    9   37 2
    16   10   20 1
    17   10   34 am
    18   10   38 2
    19   11   12 1
    20   11   13 1
    21   12   14 1
    22   13   15 1
    23   14   21 1
    24   15   21 1
    25   16   18 1
    26   16   20 1
    27   17   19 1
    28   17   22 1
    29   18   30 1
    30   19   30 1
    31   20   29 1
    32   21   33 1
    33   22   23 1
    34   22   31 1
    35   24   25 1
    36   24   26 1
    37   25   27 1
    38   26   28 1
    39   27   32 1
    40   28   34 1
    41   29   30 1
    42    1   39 1
    43    2   40 1
    44    3   41 1
    45    4   42 1
    46    5   43 1
    47   11   44 1
    48   11   45 1
    49   12   46 1
    50   12   47 1
    51   13   48 1
    52   13   49 1
    53   14   50 1
    54   14   51 1
    55   15   52 1
    56   15   53 1
    57   16   54 1
    58   16   55 1
    59   17   56 1
    60   17   57 1
    61   18   58 1
    62   18   59 1
    63   19   60 1
    64   19   61 1
    65   20   62 1
    66   21   63 1
    67   23   64 1
    68   23   65 1
    69   24   66 1
    70   24   67 1
    71   25   68 1
    72   25   69 1
    73   26   70 1
    74   26   71 1
    75   27   72 1
    76   27   73 1
    77   28   74 1
    78   31   75 1
    79   31   76 1
    80   32   77 1
    81   32   78 1
    82   33   79 1
    83   34   80 1
@<TRIPOS>MOLECULE
1a46_ligand_11
   80    83     0     0     0
SMALL
USER_CHARGES

mmff94s_NoEstat = 80.79
@<TRIPOS>ATOM
      1 C1          9.3778    1.4071  -10.5376 C.ar      1 <0>        -0.1300
      2 C2         10.0902    1.0682   -9.3873 C.ar      1 <0>        -0.1323
      3 C3          8.4252    2.4251  -10.4935 C.ar      1 <0>        -0.1309
      4 C4          9.8499    1.7472   -8.1928 C.ar      1 <0>        -0.1275
      5 C5          8.1849    3.1040   -9.2989 C.ar      1 <0>        -0.1272
      6 C6          8.8988    2.7607   -8.1564 C.ar      1 <0>        -0.0843
      7 C7          7.2708    3.5496   -4.7381 C.2       1 <0>         0.6709
      8 C8          5.2358    2.3798    1.5634 C.2       1 <0>         0.4867
      9 C9          4.0737    1.7586    0.8450 C.2       1 <0>         0.5883
     10 C10         6.2126    3.1256   -1.7338 C.2       1 <0>         0.6572
     11 C11         4.0644   -3.1378    0.1954 C.3       1 <0>        -0.0802
     12 C12         4.9349   -2.3079   -0.7445 C.3       1 <0>        -0.0765
     13 C13         3.3449   -2.2675    1.2224 C.3       1 <0>        -0.0774
     14 C14         4.1346   -1.1879   -1.4107 C.3       1 <0>        -0.0953
     15 C15         2.5480   -1.1477    0.5515 C.3       1 <0>        -0.0906
     16 C16         4.0677    3.4116   -2.9998 C.3       1 <0>        -0.0871
     17 C17         6.2374    2.7118   -6.8841 C.3       1 <0>        -0.0716
     18 C18         4.0600    2.1270   -3.8260 C.3       1 <0>         0.1333
     19 C19         4.9528    2.5709   -6.0494 C.3       1 <0>         0.1246
     20 C20         5.5372    3.7637   -2.9085 C.3       1 <0>         0.0606
     21 C21         3.4011   -0.2972   -0.3991 C.3       1 <0>         0.1012
     22 C22         7.5393    2.8062   -6.0542 C.3       1 <0>         0.1554
     23 C23         8.6404    3.4910   -6.8715 C.3       1 <0>        -0.0356
     24 C24         8.0800    4.9598    0.7851 C.3       1 <0>        -0.0795
     25 C25         8.7880    6.0338    1.6192 C.3       1 <0>        -0.1203
     26 C26         6.9719    4.2276    1.5544 C.3       1 <0>        -0.0920
     27 C27         9.9095    6.7454    0.8629 C.3       1 <0>         0.1502
     28 C28         6.2906    3.1130    0.7514 C.3       1 <0>         0.0224
     29 N1          6.1017    3.1624   -4.1017 N.am      1 <0>        -0.3553
     30 N2          5.2634    2.1873   -4.6736 N.3       1 <0>        -0.4320
     31 N3          8.0097    1.4670   -5.6708 N.3       1 <0>        -0.9031
     32 N4         10.5470    7.7366    1.7233 N.3       1 <0>        -0.9068
     33 N5          4.3625    0.5037    0.3619 N.am      1 <0>        -0.5526
     34 N6          5.7762    3.5917   -0.5046 N.am      1 <0>        -0.5576
     35 O1          8.0408    4.4006   -4.2931 O.2       1 <0>        -0.6710
     36 O2          5.3022    2.1819    2.7699 O.2       1 <0>        -0.4901
     37 O3          3.0463    2.4099    0.7491 O.2       1 <0>        -0.5902
     38 O4          7.0689    2.2691   -1.9210 O.2       1 <0>        -0.5833
     39 H1          9.5648    0.8784  -11.4677 H         1 <0>         0.1320
     40 H2         10.8319    0.2756   -9.4218 H         1 <0>         0.1324
     41 H3          7.8704    2.6887  -11.3892 H         1 <0>         0.1328
     42 H4         10.4098    1.4763   -7.3016 H         1 <0>         0.1324
     43 H5          7.4407    3.8957   -9.2740 H         1 <0>         0.1434
     44 H6          3.3227   -3.6924   -0.3927 H         1 <0>         0.0405
     45 H7          4.6827   -3.8816    0.7106 H         1 <0>         0.0421
     46 H8          5.7747   -1.8806   -0.1833 H         1 <0>         0.0362
     47 H9          5.3667   -2.9577   -1.5143 H         1 <0>         0.0439
     48 H10         2.6703   -2.8890    1.8223 H         1 <0>         0.0350
     49 H11         4.0784   -1.8371    1.9148 H         1 <0>         0.0428
     50 H12         4.8088   -0.5817   -2.0279 H         1 <0>         0.0663
     51 H13         3.3981   -1.6353   -2.0902 H         1 <0>         0.0466
     52 H14         1.7203   -1.5929   -0.0152 H         1 <0>         0.0493
     53 H15         2.0985   -0.5129    1.3247 H         1 <0>         0.0520
     54 H16         3.5352    4.1976   -3.5496 H         1 <0>         0.0915
     55 H17         3.5853    3.2820   -2.0262 H         1 <0>         0.0601
     56 H18         6.3096    1.8704   -7.5867 H         1 <0>         0.0688
     57 H19         6.1343    3.6107   -7.5070 H         1 <0>         0.0630
     58 H20         4.1583    1.2642   -3.1562 H         1 <0>         0.0807
     59 H21         3.1259    1.9993   -4.3842 H         1 <0>         0.0380
     60 H22         4.4028    3.5219   -6.0765 H         1 <0>         0.0484
     61 H23         4.3072    1.8183   -6.5178 H         1 <0>         0.0697
     62 H24         5.7284    4.8402   -2.8795 H         1 <0>         0.0843
     63 H25         2.7649    0.4200   -0.9282 H         1 <0>         0.0831
     64 H26         9.5506    3.5379   -6.2709 H         1 <0>         0.0704
     65 H27         8.3431    4.5219   -7.0731 H         1 <0>         0.0718
     66 H28         7.6494    5.4516   -0.0948 H         1 <0>         0.0606
     67 H29         8.8216    4.2418    0.4157 H         1 <0>         0.0458
     68 H30         8.0356    6.7709    1.9287 H         1 <0>         0.0375
     69 H31         9.1825    5.5824    2.5383 H         1 <0>         0.0392
     70 H32         6.2171    4.9575    1.8728 H         1 <0>         0.0606
     71 H33         7.3929    3.7874    2.4660 H         1 <0>         0.0579
     72 H34         9.5108    7.2416   -0.0285 H         1 <0>         0.0571
     73 H35        10.6706    6.0303    0.5375 H         1 <0>         0.0503
     74 H36         7.0421    2.3587    0.4881 H         1 <0>         0.0993
     75 H37         7.3242    0.7786   -5.4626 H         1 <0>         0.3700
     76 H38         8.9706    1.3637   -5.4396 H         1 <0>         0.3660
     77 H39        11.2163    8.3531    1.3147 H         1 <0>         0.3465
     78 H40        10.4498    7.6340    2.7108 H         1 <0>         0.3446
     79 H41         5.2837    0.1150    0.5408 H         1 <0>         0.3148
     80 H42         5.0545    4.3100   -0.4888 H         1 <0>         0.3220
@<TRIPOS>BOND
     1    1    2 ar
     2    1    3 ar
     3    2    4 ar
     4    3    5 ar
     5    4    6 ar
     6    5    6 ar
     7    6   23 1
     8    7   22 1
     9    7   29 am
    10    7   35 2
    11    8    9 1
    12    8   28 1
    13    8   36 2
    14    9   33 am
    15    9   37 2
    16   10   20 1
    17   10   34 am
    18   10   38 2
    19   11   12 1
    20   11   13 1
    21   12   14 1
    22   13   15 1
    23   14   21 1
    24   15   21 1
    25   16   18 1
    26   16   20 1
    27   17   19 1
    28   17   22 1
    29   18   30 1
    30   19   30 1
    31   20   29 1
    32   21   33 1
    33   22   23 1
    34   22   31 1
    35   24   25 1
    36   24   26 1
    37   25   27 1
    38   26   28 1
    39   27   32 1
    40   28   34 1
    41   29   30 1
    42    1   39 1
    43    2   40 1
    44    3   41 1
    45    4   42 1
    46    5   43 1
    47   11   44 1
    48   11   45 1
    49   12   46 1
    50   12   47 1
    51   13   48 1
    52   13   49 1
    53   14   50 1
    54   14   51 1
    55   15   52 1
    56   15   53 1
    57   16   54 1
    58   16   55 1
    59   17   56 1
    60   17   57 1
    61   18   58 1
    62   18   59 1
    63   19   60 1
    64   19   61 1
    65   20   62 1
    66   21   63 1
    67   23   64 1
    68   23   65 1
    69   24   66 1
    70   24   67 1
    71   25   68 1
    72   25   69 1
    73   26   70 1
    74   26   71 1
    75   27   72 1
    76   27   73 1
    77   28   74 1
    78   31   75 1
    79   31   76 1
    80   32   77 1
    81   32   78 1
    82   33   79 1
    83   34   80 1
@<TRIPOS>MOLECULE
1a46_ligand_12
   80    83     0     0     0
SMALL
USER_CHARGES

mmff94s_NoEstat = 80.79
@<TRIPOS>ATOM
      1 C1         11.1411    8.8652   -7.4997 C.ar      1 <0>        -0.1300
      2 C2         11.6114    8.4390   -6.2577 C.ar      1 <0>        -0.1323
      3 C3          9.7702    8.8864   -7.7566 C.ar      1 <0>        -0.1309
      4 C4         10.7109    8.0339   -5.2725 C.ar      1 <0>        -0.1275
      5 C5          8.8697    8.4813   -6.7714 C.ar      1 <0>        -0.1272
      6 C6          9.3459    8.0577   -5.5358 C.ar      1 <0>        -0.0843
      7 C7          7.0979    5.6684   -3.4876 C.2       1 <0>         0.6709
      8 C8          5.2358    2.3798    1.5634 C.2       1 <0>         0.4867
      9 C9          4.0737    1.7586    0.8450 C.2       1 <0>         0.5883
     10 C10         6.2126    3.1256   -1.7338 C.2       1 <0>         0.6572
     11 C11         0.4518    4.7141   -0.7499 C.3       1 <0>        -0.0802
     12 C12         0.4604    4.3542    0.7335 C.3       1 <0>        -0.0765
     13 C13         1.6276    4.0877   -1.4949 C.3       1 <0>        -0.0774
     14 C14         0.5251    2.8410    0.9450 C.3       1 <0>        -0.0953
     15 C15         1.6892    2.5750   -1.2783 C.3       1 <0>        -0.0906
     16 C16         4.9436    2.7496   -3.8630 C.3       1 <0>        -0.0871
     17 C17         7.5380    5.7673   -5.9719 C.3       1 <0>        -0.0716
     18 C18         6.0937    2.4470   -4.8215 C.3       1 <0>         0.1333
     19 C19         6.7139    4.4696   -6.0305 C.3       1 <0>         0.1246
     20 C20         5.5372    3.7637   -2.9085 C.3       1 <0>         0.0606
     21 C21         1.6997    2.1861    0.2060 C.3       1 <0>         0.1012
     22 C22         8.0887    6.1196   -4.5700 C.3       1 <0>         0.1554
     23 C23         8.3772    7.6220   -4.4760 C.3       1 <0>        -0.0356
     24 C24         8.0800    4.9598    0.7851 C.3       1 <0>        -0.0795
     25 C25         8.7880    6.0338    1.6192 C.3       1 <0>        -0.1203
     26 C26         6.9719    4.2276    1.5544 C.3       1 <0>        -0.0920
     27 C27         9.9095    6.7454    0.8629 C.3       1 <0>         0.1502
     28 C28         6.2906    3.1130    0.7514 C.3       1 <0>         0.0224
     29 N1          6.5723    4.4030   -3.6984 N.am      1 <0>        -0.3553
     30 N2          6.9338    3.6570   -4.8356 N.3       1 <0>        -0.4320
     31 N3          9.3363    5.3890   -4.3028 N.3       1 <0>        -0.9031
     32 N4         10.5470    7.7366    1.7233 N.3       1 <0>        -0.9068
     33 N5          2.9687    2.5774    0.8237 N.am      1 <0>        -0.5526
     34 N6          5.7762    3.5917   -0.5046 N.am      1 <0>        -0.5576
     35 O1          6.8158    6.3720   -2.5178 O.2       1 <0>        -0.6710
     36 O2          5.3022    2.1819    2.7699 O.2       1 <0>        -0.4901
     37 O3          4.2153    0.6340    0.3935 O.2       1 <0>        -0.5902
     38 O4          7.0689    2.2691   -1.9210 O.2       1 <0>        -0.5833
     39 H1         11.8422    9.1805   -8.2669 H         1 <0>         0.1320
     40 H2         12.6788    8.4225   -6.0578 H         1 <0>         0.1324
     41 H3          9.4041    9.2181   -8.7239 H         1 <0>         0.1328
     42 H4         11.0865    7.7034   -4.3077 H         1 <0>         0.1324
     43 H5          7.8034    8.5011   -6.9806 H         1 <0>         0.1434
     44 H6         -0.4874    4.3704   -1.2007 H         1 <0>         0.0405
     45 H7          0.4800    5.8035   -0.8654 H         1 <0>         0.0421
     46 H8          1.3175    4.8339    1.2211 H         1 <0>         0.0362
     47 H9         -0.4408    4.7532    1.2132 H         1 <0>         0.0439
     48 H10         1.5394    4.3016   -2.5662 H         1 <0>         0.0350
     49 H11         2.5628    4.5493   -1.1557 H         1 <0>         0.0428
     50 H12         0.5905    2.6301    2.0193 H         1 <0>         0.0663
     51 H13        -0.4122    2.3938    0.5899 H         1 <0>         0.0466
     52 H14         0.8190    2.1125   -1.7613 H         1 <0>         0.0493
     53 H15         2.5797    2.1759   -1.7790 H         1 <0>         0.0520
     54 H16         4.1195    3.2100   -4.4221 H         1 <0>         0.0915
     55 H17         4.5667    1.8489   -3.3690 H         1 <0>         0.0601
     56 H18         8.3688    5.7042   -6.6879 H         1 <0>         0.0688
     57 H19         6.8987    6.5856   -6.3304 H         1 <0>         0.0630
     58 H20         6.6930    1.6211   -4.4197 H         1 <0>         0.0807
     59 H21         5.7379    2.1381   -5.8106 H         1 <0>         0.0380
     60 H22         5.6510    4.7258   -6.1401 H         1 <0>         0.0484
     61 H23         6.9989    3.9097   -6.9293 H         1 <0>         0.0697
     62 H24         4.8121    4.4950   -2.5402 H         1 <0>         0.0843
     63 H25         1.6405    1.0972    0.3052 H         1 <0>         0.0831
     64 H26         8.7732    7.8456   -3.4837 H         1 <0>         0.0704
     65 H27         7.4380    8.1701   -4.5707 H         1 <0>         0.0718
     66 H28         7.6494    5.4516   -0.0948 H         1 <0>         0.0606
     67 H29         8.8216    4.2418    0.4157 H         1 <0>         0.0458
     68 H30         8.0356    6.7709    1.9287 H         1 <0>         0.0375
     69 H31         9.1825    5.5824    2.5383 H         1 <0>         0.0392
     70 H32         6.2171    4.9575    1.8728 H         1 <0>         0.0606
     71 H33         7.3929    3.7874    2.4660 H         1 <0>         0.0579
     72 H34         9.5108    7.2416   -0.0285 H         1 <0>         0.0571
     73 H35        10.6706    6.0303    0.5375 H         1 <0>         0.0503
     74 H36         7.0421    2.3587    0.4881 H         1 <0>         0.0993
     75 H37         9.4175    4.4664   -4.6628 H         1 <0>         0.3700
     76 H38         9.9501    5.7594   -3.6148 H         1 <0>         0.3660
     77 H39        11.2163    8.3531    1.3147 H         1 <0>         0.3465
     78 H40        10.4498    7.6340    2.7108 H         1 <0>         0.3446
     79 H41         3.0357    3.4942    1.2556 H         1 <0>         0.3148
     80 H42         5.0545    4.3100   -0.4888 H         1 <0>         0.3220
@<TRIPOS>BOND
     1    1    2 ar
     2    1    3 ar
     3    2    4 ar
     4    3    5 ar
     5    4    6 ar
     6    5    6 ar
     7    6   23 1
     8    7   22 1
     9    7   29 am
    10    7   35 2
    11    8    9 1
    12    8   28 1
    13    8   36 2
    14    9   33 am
    15    9   37 2
    16   10   20 1
    17   10   34 am
    18   10   38 2
    19   11   12 1
    20   11   13 1
    21   12   14 1
    22   13   15 1
    23   14   21 1
    24   15   21 1
    25   16   18 1
    26   16   20 1
    27   17   19 1
    28   17   22 1
    29   18   30 1
    30   19   30 1
    31   20   29 1
    32   21   33 1
    33   22   23 1
    34   22   31 1
    35   24   25 1
    36   24   26 1
    37   25   27 1
    38   26   28 1
    39   27   32 1
    40   28   34 1
    41   29   30 1
    42    1   39 1
    43    2   40 1
    44    3   41 1
    45    4   42 1
    46    5   43 1
    47   11   44 1
    48   11   45 1
    49   12   46 1
    50   12   47 1
    51   13   48 1
    52   13   49 1
    53   14   50 1
    54   14   51 1
    55   15   52 1
    56   15   53 1
    57   16   54 1
    58   16   55 1
    59   17   56 1
    60   17   57 1
    61   18   58 1
    62   18   59 1
    63   19   60 1
    64   19   61 1
    65   20   62 1
    66   21   63 1
    67   23   64 1
    68   23   65 1
    69   24   66 1
    70   24   67 1
    71   25   68 1
    72   25   69 1
    73   26   70 1
    74   26   71 1
    75   27   72 1
    76   27   73 1
    77   28   74 1
    78   31   75 1
    79   31   76 1
    80   32   77 1
    81   32   78 1
    82   33   79 1
    83   34   80 1
@<TRIPOS>MOLECULE
1a46_ligand_13
   80    83     0     0     0
SMALL
USER_CHARGES

mmff94s_NoEstat = 80.82
@<TRIPOS>ATOM
      1 C1          5.9504   -1.3642  -10.1903 C.ar      1 <0>        -0.1300
      2 C2          6.6765   -1.8241   -9.0918 C.ar      1 <0>        -0.1323
      3 C3          5.5463   -0.0305  -10.2504 C.ar      1 <0>        -0.1309
      4 C4          6.9984   -0.9504   -8.0532 C.ar      1 <0>        -0.1275
      5 C5          5.8681    0.8432   -9.2119 C.ar      1 <0>        -0.1272
      6 C6          6.5921    0.3776   -8.1201 C.ar      1 <0>        -0.0843
      7 C7          6.1974    2.2868   -4.7798 C.2       1 <0>         0.6709
      8 C8          5.2358    2.3798    1.5634 C.2       1 <0>         0.4867
      9 C9          3.8230    2.3549    1.0577 C.2       1 <0>         0.5883
     10 C10         5.7098    2.8119   -1.6475 C.2       1 <0>         0.6572
     11 C11         0.3896    4.6662    3.7535 C.3       1 <0>        -0.0802
     12 C12         0.7833    3.1927    3.6928 C.3       1 <0>        -0.0765
     13 C13         1.2470    5.5235    2.8264 C.3       1 <0>        -0.0774
     14 C14         0.7693    2.6651    2.2575 C.3       1 <0>        -0.0953
     15 C15         1.2316    4.9906    1.3930 C.3       1 <0>        -0.0906
     16 C16         3.6723    3.8570   -2.6681 C.3       1 <0>        -0.0871
     17 C17         4.4858    1.7161   -6.5463 C.3       1 <0>        -0.0716
     18 C18         2.9535    2.6133   -3.1875 C.3       1 <0>         0.1333
     19 C19         3.4659    2.2898   -5.5476 C.3       1 <0>         0.1246
     20 C20         5.1372    3.5153   -2.8394 C.3       1 <0>         0.0606
     21 C21         1.6248    3.5100    1.3041 C.3       1 <0>         0.1012
     22 C22         5.8481    1.3265   -5.9256 C.3       1 <0>         0.1554
     23 C23         6.9383    1.3175   -7.0029 C.3       1 <0>        -0.0356
     24 C24         6.0158    5.3379    2.0114 C.3       1 <0>        -0.0795
     25 C25         6.7209    6.4716    2.7653 C.3       1 <0>        -0.1203
     26 C26         6.9719    4.2276    1.5544 C.3       1 <0>        -0.0920
     27 C27         5.7742    7.5909    3.1979 C.3       1 <0>         0.1502
     28 C28         6.2906    3.1130    0.7514 C.3       1 <0>         0.0224
     29 N1          5.1345    2.5635   -3.9339 N.am      1 <0>        -0.3553
     30 N2          3.8653    2.0037   -4.1710 N.3       1 <0>        -0.4320
     31 N3          5.7803   -0.0123   -5.3216 N.3       1 <0>        -0.9031
     32 N4          6.5168    8.6391    3.8900 N.3       1 <0>        -0.9068
     33 N5          3.0460    3.3433    1.6158 N.am      1 <0>        -0.5526
     34 N6          5.7762    3.5917   -0.5046 N.am      1 <0>        -0.5576
     35 O1          7.3278    2.7504   -4.6301 O.2       1 <0>        -0.6710
     36 O2          5.4669    1.7271    2.5732 O.2       1 <0>        -0.4901
     37 O3          3.5174    1.4867    0.2568 O.2       1 <0>        -0.5902
     38 O4          6.0670    1.6440   -1.7490 O.2       1 <0>        -0.5833
     39 H1          5.6997   -2.0446  -10.9989 H         1 <0>         0.1320
     40 H2          6.9911   -2.8626   -9.0451 H         1 <0>         0.1324
     41 H3          4.9808    0.3274  -11.1059 H         1 <0>         0.1328
     42 H4          7.5644   -1.3176   -7.2012 H         1 <0>         0.1324
     43 H5          5.5489    1.8806   -9.2673 H         1 <0>         0.1434
     44 H6         -0.6654    4.7712    3.4715 H         1 <0>         0.0405
     45 H7          0.4815    5.0305    4.7829 H         1 <0>         0.0421
     46 H8          1.7825    3.0631    4.1260 H         1 <0>         0.0362
     47 H9          0.0932    2.6028    4.3070 H         1 <0>         0.0439
     48 H10         0.8803    6.5563    2.8376 H         1 <0>         0.0350
     49 H11         2.2773    5.5493    3.2014 H         1 <0>         0.0428
     50 H12         1.1154    1.6244    2.2530 H         1 <0>         0.0663
     51 H13        -0.2661    2.6571    1.8937 H         1 <0>         0.0466
     52 H14         0.2228    5.1163    0.9794 H         1 <0>         0.0493
     53 H15         1.9056    5.5973    0.7762 H         1 <0>         0.0520
     54 H16         3.4181    4.7133   -3.3051 H         1 <0>         0.0915
     55 H17         3.3944    4.0971   -1.6373 H         1 <0>         0.0601
     56 H18         4.0497    0.8441   -7.0524 H         1 <0>         0.0688
     57 H19         4.6431    2.4675   -7.3320 H         1 <0>         0.0630
     58 H20         2.8170    1.9026   -2.3635 H         1 <0>         0.0807
     59 H21         1.9588    2.8453   -3.5837 H         1 <0>         0.0380
     60 H22         3.3744    3.3723   -5.7123 H         1 <0>         0.0484
     61 H23         2.4818    1.8533   -5.7569 H         1 <0>         0.0697
     62 H24         5.7646    4.3810   -3.0694 H         1 <0>         0.0843
     63 H25         1.4987    3.1531    0.2766 H         1 <0>         0.0831
     64 H26         7.8868    1.0311   -6.5450 H         1 <0>         0.0704
     65 H27         7.0672    2.3317   -7.3854 H         1 <0>         0.0718
     66 H28         5.2579    4.9142    2.6804 H         1 <0>         0.0606
     67 H29         5.4809    5.7546    1.1500 H         1 <0>         0.0458
     68 H30         7.2000    6.0392    3.6534 H         1 <0>         0.0375
     69 H31         7.5258    6.8807    2.1417 H         1 <0>         0.0392
     70 H32         7.4599    3.7926    2.4354 H         1 <0>         0.0606
     71 H33         7.7645    4.6634    0.9347 H         1 <0>         0.0579
     72 H34         4.9986    7.1962    3.8630 H         1 <0>         0.0571
     73 H35         5.2784    8.0349    2.3297 H         1 <0>         0.0503
     74 H36         7.0421    2.3587    0.4881 H         1 <0>         0.0993
     75 H37         4.9287   -0.2795   -4.8849 H         1 <0>         0.3700
     76 H38         6.6336   -0.5056   -5.1950 H         1 <0>         0.3660
     77 H39         5.9996    9.3711    4.3277 H         1 <0>         0.3465
     78 H40         7.4997    8.7018    3.7315 H         1 <0>         0.3446
     79 H41         3.4772    3.9862    2.2733 H         1 <0>         0.3148
     80 H42         5.4441    4.5531   -0.5557 H         1 <0>         0.3220
@<TRIPOS>BOND
     1    1    2 ar
     2    1    3 ar
     3    2    4 ar
     4    3    5 ar
     5    4    6 ar
     6    5    6 ar
     7    6   23 1
     8    7   22 1
     9    7   29 am
    10    7   35 2
    11    8    9 1
    12    8   28 1
    13    8   36 2
    14    9   33 am
    15    9   37 2
    16   10   20 1
    17   10   34 am
    18   10   38 2
    19   11   12 1
    20   11   13 1
    21   12   14 1
    22   13   15 1
    23   14   21 1
    24   15   21 1
    25   16   18 1
    26   16   20 1
    27   17   19 1
    28   17   22 1
    29   18   30 1
    30   19   30 1
    31   20   29 1
    32   21   33 1
    33   22   23 1
    34   22   31 1
    35   24   25 1
    36   24   26 1
    37   25   27 1
    38   26   28 1
    39   27   32 1
    40   28   34 1
    41   29   30 1
    42    1   39 1
    43    2   40 1
    44    3   41 1
    45    4   42 1
    46    5   43 1
    47   11   44 1
    48   11   45 1
    49   12   46 1
    50   12   47 1
    51   13   48 1
    52   13   49 1
    53   14   50 1
    54   14   51 1
    55   15   52 1
    56   15   53 1
    57   16   54 1
    58   16   55 1
    59   17   56 1
    60   17   57 1
    61   18   58 1
    62   18   59 1
    63   19   60 1
    64   19   61 1
    65   20   62 1
    66   21   63 1
    67   23   64 1
    68   23   65 1
    69   24   66 1
    70   24   67 1
    71   25   68 1
    72   25   69 1
    73   26   70 1
    74   26   71 1
    75   27   72 1
    76   27   73 1
    77   28   74 1
    78   31   75 1
    79   31   76 1
    80   32   77 1
    81   32   78 1
    82   33   79 1
    83   34   80 1
@<TRIPOS>MOLECULE
1a46_ligand_14
   80    83     0     0     0
SMALL
USER_CHARGES

mmff94s_NoEstat = 80.90
@<TRIPOS>ATOM
      1 C1         11.1945    5.3647   -9.7731 C.ar      1 <0>        -0.1300
      2 C2         11.8337    5.1154   -8.5586 C.ar      1 <0>        -0.1323
      3 C3          9.8873    5.8513   -9.7863 C.ar      1 <0>        -0.1309
      4 C4         11.1656    5.3526   -7.3573 C.ar      1 <0>        -0.1275
      5 C5          9.2192    6.0884   -8.5850 C.ar      1 <0>        -0.1272
      6 C6          9.8628    5.8375   -7.3783 C.ar      1 <0>        -0.0843
      7 C7          7.6425    5.1042   -4.2977 C.2       1 <0>         0.6709
      8 C8          5.2358    2.3798    1.5634 C.2       1 <0>         0.4867
      9 C9          3.8230    2.3549    1.0577 C.2       1 <0>         0.5883
     10 C10         6.5256    3.6321   -1.6689 C.2       1 <0>         0.6572
     11 C11         1.0692    6.4203    1.5928 C.3       1 <0>        -0.0802
     12 C12         1.2490    5.5295    2.8191 C.3       1 <0>        -0.0765
     13 C13         1.8252    5.8812    0.3813 C.3       1 <0>        -0.0774
     14 C14         0.8776    4.0767    2.5187 C.3       1 <0>        -0.0953
     15 C15         1.4521    4.4277    0.0864 C.3       1 <0>        -0.0906
     16 C16         4.6595    3.2577   -3.3009 C.3       1 <0>        -0.0871
     17 C17         7.3760    4.3986   -6.7074 C.3       1 <0>        -0.0716
     18 C18         5.3367    2.3027   -4.2819 C.3       1 <0>         0.1333
     19 C19         6.2012    3.5529   -6.1864 C.3       1 <0>         0.1246
     20 C20         5.7868    4.1659   -2.8575 C.3       1 <0>         0.0606
     21 C21         1.6248    3.5100    1.3041 C.3       1 <0>         0.1012
     22 C22         8.3797    4.8486   -5.6198 C.3       1 <0>         0.1554
     23 C23         9.1441    6.0926   -6.0861 C.3       1 <0>        -0.0356
     24 C24         6.0158    5.3379    2.0114 C.3       1 <0>        -0.0795
     25 C25         6.7209    6.4716    2.7653 C.3       1 <0>        -0.1203
     26 C26         6.9719    4.2276    1.5544 C.3       1 <0>        -0.0920
     27 C27         5.7742    7.5909    3.1979 C.3       1 <0>         0.1502
     28 C28         6.2906    3.1130    0.7514 C.3       1 <0>         0.0224
     29 N1          6.7058    4.1331   -3.9791 N.am      1 <0>        -0.3553
     30 N2          6.4777    3.0462   -4.8435 N.3       1 <0>        -0.4320
     31 N3          9.3531    3.7833   -5.3380 N.3       1 <0>        -0.9031
     32 N4          4.7531    7.0666    4.0988 N.3       1 <0>        -0.9068
     33 N5          3.0460    3.3433    1.6158 N.am      1 <0>        -0.5526
     34 N6          5.7762    3.5917   -0.5046 N.am      1 <0>        -0.5576
     35 O1          7.8821    6.0807   -3.5877 O.2       1 <0>        -0.6710
     36 O2          5.4669    1.7271    2.5732 O.2       1 <0>        -0.4901
     37 O3          3.5174    1.4867    0.2568 O.2       1 <0>        -0.5902
     38 O4          7.6924    3.2783   -1.7917 O.2       1 <0>        -0.5833
     39 H1         11.7147    5.1800  -10.7084 H         1 <0>         0.1320
     40 H2         12.8515    4.7366   -8.5485 H         1 <0>         0.1324
     41 H3          9.3897    6.0452  -10.7320 H         1 <0>         0.1328
     42 H4         11.6716    5.1554   -6.4159 H         1 <0>         0.1324
     43 H5          8.2009    6.4675   -8.6050 H         1 <0>         0.1434
     44 H6          0.0016    6.4927    1.3509 H         1 <0>         0.0405
     45 H7          1.4133    7.4355    1.8206 H         1 <0>         0.0421
     46 H8          2.2898    5.5833    3.1607 H         1 <0>         0.0362
     47 H9          0.6268    5.9047    3.6398 H         1 <0>         0.0439
     48 H10         1.6047    6.5014   -0.4950 H         1 <0>         0.0350
     49 H11         2.9045    5.9581    0.5602 H         1 <0>         0.0428
     50 H12         1.0784    3.4630    3.4052 H         1 <0>         0.0663
     51 H13        -0.2021    4.0193    2.3305 H         1 <0>         0.0466
     52 H14         0.4054    4.3904   -0.2416 H         1 <0>         0.0493
     53 H15         2.0603    4.0627   -0.7501 H         1 <0>         0.0520
     54 H16         3.9023    3.8458   -3.8340 H         1 <0>         0.0915
     55 H17         4.1709    2.7289   -2.4768 H         1 <0>         0.0601
     56 H18         7.9078    3.8408   -7.4902 H         1 <0>         0.0688
     57 H19         6.9559    5.2827   -7.2061 H         1 <0>         0.0630
     58 H20         5.7303    1.4383   -3.7336 H         1 <0>         0.0807
     59 H21         4.6390    1.9190   -5.0344 H         1 <0>         0.0380
     60 H22         5.2889    4.1652   -6.1941 H         1 <0>         0.0484
     61 H23         6.0298    2.7205   -6.8794 H         1 <0>         0.0697
     62 H24         5.4651    5.1881   -2.6391 H         1 <0>         0.0843
     63 H25         1.2489    2.5083    1.0707 H         1 <0>         0.0831
     64 H26         9.8520    6.3858   -5.3087 H         1 <0>         0.0704
     65 H27         8.4405    6.9195   -6.1990 H         1 <0>         0.0718
     66 H28         5.2579    4.9142    2.6804 H         1 <0>         0.0606
     67 H29         5.4809    5.7546    1.1500 H         1 <0>         0.0458
     68 H30         7.2000    6.0392    3.6534 H         1 <0>         0.0375
     69 H31         7.5258    6.8807    2.1417 H         1 <0>         0.0392
     70 H32         7.4599    3.7926    2.4354 H         1 <0>         0.0606
     71 H33         7.7645    4.6634    0.9347 H         1 <0>         0.0579
     72 H34         5.2908    8.0386    2.3228 H         1 <0>         0.0571
     73 H35         6.3225    8.3806    3.7198 H         1 <0>         0.0503
     74 H36         7.0421    2.3587    0.4881 H         1 <0>         0.0993
     75 H37         9.0331    2.8434   -5.3754 H         1 <0>         0.3700
     76 H38        10.2196    4.0460   -4.9287 H         1 <0>         0.3660
     77 H39         4.0028    7.6695    4.3608 H         1 <0>         0.3465
     78 H40         4.9421    6.2118    4.5770 H         1 <0>         0.3446
     79 H41         3.4772    3.9862    2.2733 H         1 <0>         0.3148
     80 H42         4.8120    3.9176   -0.5391 H         1 <0>         0.3220
@<TRIPOS>BOND
     1    1    2 ar
     2    1    3 ar
     3    2    4 ar
     4    3    5 ar
     5    4    6 ar
     6    5    6 ar
     7    6   23 1
     8    7   22 1
     9    7   29 am
    10    7   35 2
    11    8    9 1
    12    8   28 1
    13    8   36 2
    14    9   33 am
    15    9   37 2
    16   10   20 1
    17   10   34 am
    18   10   38 2
    19   11   12 1
    20   11   13 1
    21   12   14 1
    22   13   15 1
    23   14   21 1
    24   15   21 1
    25   16   18 1
    26   16   20 1
    27   17   19 1
    28   17   22 1
    29   18   30 1
    30   19   30 1
    31   20   29 1
    32   21   33 1
    33   22   23 1
    34   22   31 1
    35   24   25 1
    36   24   26 1
    37   25   27 1
    38   26   28 1
    39   27   32 1
    40   28   34 1
    41   29   30 1
    42    1   39 1
    43    2   40 1
    44    3   41 1
    45    4   42 1
    46    5   43 1
    47   11   44 1
    48   11   45 1
    49   12   46 1
    50   12   47 1
    51   13   48 1
    52   13   49 1
    53   14   50 1
    54   14   51 1
    55   15   52 1
    56   15   53 1
    57   16   54 1
    58   16   55 1
    59   17   56 1
    60   17   57 1
    61   18   58 1
    62   18   59 1
    63   19   60 1
    64   19   61 1
    65   20   62 1
    66   21   63 1
    67   23   64 1
    68   23   65 1
    69   24   66 1
    70   24   67 1
    71   25   68 1
    72   25   69 1
    73   26   70 1
    74   26   71 1
    75   27   72 1
    76   27   73 1
    77   28   74 1
    78   31   75 1
    79   31   76 1
    80   32   77 1
    81   32   78 1
    82   33   79 1
    83   34   80 1
@<TRIPOS>MOLECULE
1a46_ligand_15
   80    83     0     0     0
SMALL
USER_CHARGES

mmff94s_NoEstat = 80.98
@<TRIPOS>ATOM
      1 C1         -4.2961    6.3604   -2.7495 C.ar      1 <0>        -0.1300
      2 C2         -3.8917    5.7888   -1.5431 C.ar      1 <0>        -0.1323
      3 C3         -3.4839    6.2539   -3.8786 C.ar      1 <0>        -0.1309
      4 C4         -2.6752    5.1109   -1.4657 C.ar      1 <0>        -0.1275
      5 C5         -2.2674    5.5759   -3.8012 C.ar      1 <0>        -0.1272
      6 C6         -1.8709    5.0088   -2.5952 C.ar      1 <0>        -0.0843
      7 C7          1.9202    4.4855   -2.0375 C.2       1 <0>         0.6709
      8 C8          5.2358    2.3798    1.5634 C.2       1 <0>         0.4867
      9 C9          4.0737    1.7586    0.8450 C.2       1 <0>         0.5883
     10 C10         4.7954    4.5647   -0.6048 C.2       1 <0>         0.6572
     11 C11         4.8597   -2.3625   -1.7617 C.3       1 <0>        -0.0802
     12 C12         5.2794   -1.0401   -2.3982 C.3       1 <0>        -0.0765
     13 C13         4.2715   -2.1623   -0.3676 C.3       1 <0>        -0.0774
     14 C14         4.1312   -0.0301   -2.4063 C.3       1 <0>        -0.0953
     15 C15         3.1253   -1.1498   -0.3806 C.3       1 <0>        -0.0906
     16 C16         5.1345    6.1376   -2.5274 C.3       1 <0>        -0.0871
     17 C17         0.6797    6.3873   -3.1418 C.3       1 <0>        -0.0716
     18 C18         4.2227    7.2889   -2.1078 C.3       1 <0>         0.1333
     19 C19         2.0578    7.0682   -3.2043 C.3       1 <0>         0.1246
     20 C20         4.4137    4.9104   -2.0113 C.3       1 <0>         0.0606
     21 C21         3.5216    0.1899   -1.0153 C.3       1 <0>         0.1012
     22 C22         0.5786    5.2268   -2.1241 C.3       1 <0>         0.1554
     23 C23        -0.5623    4.2796   -2.5120 C.3       1 <0>        -0.0356
     24 C24         8.0800    4.9598    0.7851 C.3       1 <0>        -0.0795
     25 C25         8.7880    6.0338    1.6192 C.3       1 <0>        -0.1203
     26 C26         6.9719    4.2276    1.5544 C.3       1 <0>        -0.0920
     27 C27         9.9095    6.7454    0.8629 C.3       1 <0>         0.1502
     28 C28         6.2906    3.1130    0.7514 C.3       1 <0>         0.0224
     29 N1          3.0235    5.3233   -1.9852 N.am      1 <0>        -0.3553
     30 N2          2.8653    6.7208   -2.0365 N.3       1 <0>        -0.4320
     31 N3          0.3159    5.7420   -0.7724 N.3       1 <0>        -0.9031
     32 N4         10.5470    7.7366    1.7233 N.3       1 <0>        -0.9068
     33 N5          4.4695    0.8988   -0.1529 N.am      1 <0>        -0.5526
     34 N6          5.7762    3.5917   -0.5046 N.am      1 <0>        -0.5576
     35 O1          1.9934    3.2573   -2.0040 O.2       1 <0>        -0.6710
     36 O2          5.3022    2.1819    2.7699 O.2       1 <0>        -0.4901
     37 O3          2.9489    2.0822    1.1900 O.2       1 <0>        -0.5902
     38 O4          4.2448    5.1367    0.3286 O.2       1 <0>        -0.5833
     39 H1         -5.2433    6.8883   -2.8098 H         1 <0>         0.1320
     40 H2         -4.5242    5.8718   -0.6641 H         1 <0>         0.1324
     41 H3         -3.7988    6.6991   -4.8178 H         1 <0>         0.1328
     42 H4         -2.3683    4.6687   -0.5215 H         1 <0>         0.1324
     43 H5         -1.6411    5.4981   -4.6860 H         1 <0>         0.1434
     44 H6          4.1159   -2.8528   -2.4019 H         1 <0>         0.0405
     45 H7          5.7231   -3.0350   -1.7048 H         1 <0>         0.0421
     46 H8          6.1342   -0.6256   -1.8502 H         1 <0>         0.0362
     47 H9          5.6182   -1.2183   -3.4252 H         1 <0>         0.0439
     48 H10         3.9090   -3.1215    0.0193 H         1 <0>         0.0350
     49 H11         5.0588   -1.8223    0.3160 H         1 <0>         0.0428
     50 H12         4.4917    0.9217   -2.8150 H         1 <0>         0.0663
     51 H13         3.3477   -0.3907   -3.0849 H         1 <0>         0.0466
     52 H14         2.2839   -1.5748   -0.9427 H         1 <0>         0.0493
     53 H15         2.7736   -0.9912    0.6460 H         1 <0>         0.0520
     54 H16         5.1868    6.0993   -3.6226 H         1 <0>         0.0915
     55 H17         6.1502    6.2483   -2.1355 H         1 <0>         0.0601
     56 H18        -0.0889    7.1398   -2.9187 H         1 <0>         0.0688
     57 H19         0.4458    6.0134   -4.1479 H         1 <0>         0.0630
     58 H20         4.5037    7.6265   -1.1030 H         1 <0>         0.0807
     59 H21         4.3115    8.1522   -2.7765 H         1 <0>         0.0380
     60 H22         2.5627    6.7687   -4.1331 H         1 <0>         0.0484
     61 H23         1.9139    8.1541   -3.2580 H         1 <0>         0.0697
     62 H24         4.5519    4.0254   -2.6387 H         1 <0>         0.0843
     63 H25         2.6430    0.8387   -1.0930 H         1 <0>         0.0831
     64 H26        -0.6211    3.4755   -1.7762 H         1 <0>         0.0704
     65 H27        -0.3254    3.8127   -3.4698 H         1 <0>         0.0718
     66 H28         7.6494    5.4516   -0.0948 H         1 <0>         0.0606
     67 H29         8.8216    4.2418    0.4157 H         1 <0>         0.0458
     68 H30         8.0356    6.7709    1.9287 H         1 <0>         0.0375
     69 H31         9.1825    5.5824    2.5383 H         1 <0>         0.0392
     70 H32         6.2171    4.9575    1.8728 H         1 <0>         0.0606
     71 H33         7.3929    3.7874    2.4660 H         1 <0>         0.0579
     72 H34         9.5108    7.2416   -0.0285 H         1 <0>         0.0571
     73 H35        10.6706    6.0303    0.5375 H         1 <0>         0.0503
     74 H36         7.0421    2.3587    0.4881 H         1 <0>         0.0993
     75 H37         0.7364    6.6054   -0.5173 H         1 <0>         0.3700
     76 H38        -0.0926    5.1211   -0.1128 H         1 <0>         0.3660
     77 H39        11.2163    8.3531    1.3147 H         1 <0>         0.3465
     78 H40        10.4498    7.6340    2.7108 H         1 <0>         0.3446
     79 H41         5.4635    0.7487   -0.2981 H         1 <0>         0.3148
     80 H42         6.1527    3.1949   -1.3636 H         1 <0>         0.3220
@<TRIPOS>BOND
     1    1    2 ar
     2    1    3 ar
     3    2    4 ar
     4    3    5 ar
     5    4    6 ar
     6    5    6 ar
     7    6   23 1
     8    7   22 1
     9    7   29 am
    10    7   35 2
    11    8    9 1
    12    8   28 1
    13    8   36 2
    14    9   33 am
    15    9   37 2
    16   10   20 1
    17   10   34 am
    18   10   38 2
    19   11   12 1
    20   11   13 1
    21   12   14 1
    22   13   15 1
    23   14   21 1
    24   15   21 1
    25   16   18 1
    26   16   20 1
    27   17   19 1
    28   17   22 1
    29   18   30 1
    30   19   30 1
    31   20   29 1
    32   21   33 1
    33   22   23 1
    34   22   31 1
    35   24   25 1
    36   24   26 1
    37   25   27 1
    38   26   28 1
    39   27   32 1
    40   28   34 1
    41   29   30 1
    42    1   39 1
    43    2   40 1
    44    3   41 1
    45    4   42 1
    46    5   43 1
    47   11   44 1
    48   11   45 1
    49   12   46 1
    50   12   47 1
    51   13   48 1
    52   13   49 1
    53   14   50 1
    54   14   51 1
    55   15   52 1
    56   15   53 1
    57   16   54 1
    58   16   55 1
    59   17   56 1
    60   17   57 1
    61   18   58 1
    62   18   59 1
    63   19   60 1
    64   19   61 1
    65   20   62 1
    66   21   63 1
    67   23   64 1
    68   23   65 1
    69   24   66 1
    70   24   67 1
    71   25   68 1
    72   25   69 1
    73   26   70 1
    74   26   71 1
    75   27   72 1
    76   27   73 1
    77   28   74 1
    78   31   75 1
    79   31   76 1
    80   32   77 1
    81   32   78 1
    82   33   79 1
    83   34   80 1
@<TRIPOS>MOLECULE
1a46_ligand_16
   80    83     0     0     0
SMALL
USER_CHARGES

mmff94s_NoEstat = 81.01
@<TRIPOS>ATOM
      1 C1          9.0003   12.0144   -5.4225 C.ar      1 <0>        -0.1300
      2 C2          9.4537   11.5665   -4.1818 C.ar      1 <0>        -0.1323
      3 C3          7.8120   11.5127   -5.9535 C.ar      1 <0>        -0.1309
      4 C4          8.7189   10.6167   -3.4722 C.ar      1 <0>        -0.1275
      5 C5          7.0772   10.5629   -5.2439 C.ar      1 <0>        -0.1272
      6 C6          7.5355   10.1211   -4.0078 C.ar      1 <0>        -0.0843
      7 C7          6.3757    6.6257   -2.8269 C.2       1 <0>         0.6709
      8 C8          5.2358    2.3798    1.5634 C.2       1 <0>         0.4867
      9 C9          3.8230    2.3549    1.0577 C.2       1 <0>         0.5883
     10 C10         6.5256    3.6321   -1.6689 C.2       1 <0>         0.6572
     11 C11         1.0692    6.4203    1.5928 C.3       1 <0>        -0.0802
     12 C12         1.2490    5.5295    2.8191 C.3       1 <0>        -0.0765
     13 C13         1.8252    5.8812    0.3813 C.3       1 <0>        -0.0774
     14 C14         0.8776    4.0767    2.5187 C.3       1 <0>        -0.0953
     15 C15         1.4521    4.4277    0.0864 C.3       1 <0>        -0.0906
     16 C16         5.8400    3.2307   -4.0468 C.3       1 <0>        -0.0871
     17 C17         7.0291    7.4385   -5.1265 C.3       1 <0>        -0.0716
     18 C18         7.1120    3.6562   -4.7776 C.3       1 <0>         0.1333
     19 C19         6.8955    5.9616   -5.5361 C.3       1 <0>         0.1246
     20 C20         5.7868    4.1659   -2.8575 C.3       1 <0>         0.0606
     21 C21         1.6248    3.5100    1.3041 C.3       1 <0>         0.1012
     22 C22         7.1815    7.6752   -3.6055 C.3       1 <0>         0.1554
     23 C23         6.7451    9.0995   -3.2444 C.3       1 <0>        -0.0356
     24 C24         6.0158    5.3379    2.0114 C.3       1 <0>        -0.0795
     25 C25         6.7209    6.4716    2.7653 C.3       1 <0>        -0.1203
     26 C26         6.9719    4.2276    1.5544 C.3       1 <0>        -0.0920
     27 C27         5.7742    7.5909    3.1979 C.3       1 <0>         0.1502
     28 C28         6.2906    3.1130    0.7514 C.3       1 <0>         0.0224
     29 N1          6.5101    5.3360   -3.3173 N.am      1 <0>        -0.3553
     30 N2          7.3084    5.0783   -4.4472 N.3       1 <0>        -0.4320
     31 N3          8.5804    7.4980   -3.1893 N.3       1 <0>        -0.9031
     32 N4          6.5168    8.6391    3.8900 N.3       1 <0>        -0.9068
     33 N5          3.0460    3.3433    1.6158 N.am      1 <0>        -0.5526
     34 N6          5.7762    3.5917   -0.5046 N.am      1 <0>        -0.5576
     35 O1          5.6876    6.9159   -1.8485 O.2       1 <0>        -0.6710
     36 O2          5.4669    1.7271    2.5732 O.2       1 <0>        -0.4901
     37 O3          3.5174    1.4867    0.2568 O.2       1 <0>        -0.5902
     38 O4          7.6924    3.2783   -1.7917 O.2       1 <0>        -0.5833
     39 H1          9.5724   12.7539   -5.9752 H         1 <0>         0.1320
     40 H2         10.3789   11.9573   -3.7685 H         1 <0>         0.1324
     41 H3          7.4591   11.8615   -6.9197 H         1 <0>         0.1328
     42 H4          9.0800   10.2736   -2.5062 H         1 <0>         0.1324
     43 H5          6.1526   10.1776   -5.6655 H         1 <0>         0.1434
     44 H6          0.0016    6.4927    1.3509 H         1 <0>         0.0405
     45 H7          1.4133    7.4355    1.8206 H         1 <0>         0.0421
     46 H8          2.2898    5.5833    3.1607 H         1 <0>         0.0362
     47 H9          0.6268    5.9047    3.6398 H         1 <0>         0.0439
     48 H10         1.6047    6.5014   -0.4950 H         1 <0>         0.0350
     49 H11         2.9045    5.9581    0.5602 H         1 <0>         0.0428
     50 H12         1.0784    3.4630    3.4052 H         1 <0>         0.0663
     51 H13        -0.2021    4.0193    2.3305 H         1 <0>         0.0466
     52 H14         0.4054    4.3904   -0.2416 H         1 <0>         0.0493
     53 H15         2.0603    4.0627   -0.7501 H         1 <0>         0.0520
     54 H16         4.9736    3.4114   -4.6951 H         1 <0>         0.0915
     55 H17         5.8531    2.1713   -3.7729 H         1 <0>         0.0601
     56 H18         7.8805    7.8879   -5.6555 H         1 <0>         0.0688
     57 H19         6.1391    7.9685   -5.4921 H         1 <0>         0.0630
     58 H20         7.9647    3.0932   -4.3794 H         1 <0>         0.0807
     59 H21         7.0607    3.4497   -5.8523 H         1 <0>         0.0380
     60 H22         5.8545    5.7643   -5.8276 H         1 <0>         0.0484
     61 H23         7.5124    5.7838   -6.4252 H         1 <0>         0.0697
     62 H24         4.7698    4.4250   -2.5496 H         1 <0>         0.0843
     63 H25         1.2489    2.5083    1.0707 H         1 <0>         0.0831
     64 H26         6.8700    9.2469   -2.1701 H         1 <0>         0.0704
     65 H27         5.6795    9.2080   -3.4549 H         1 <0>         0.0718
     66 H28         5.2579    4.9142    2.6804 H         1 <0>         0.0606
     67 H29         5.4809    5.7546    1.1500 H         1 <0>         0.0458
     68 H30         7.2000    6.0392    3.6534 H         1 <0>         0.0375
     69 H31         7.5258    6.8807    2.1417 H         1 <0>         0.0392
     70 H32         7.4599    3.7926    2.4354 H         1 <0>         0.0606
     71 H33         7.7645    4.6634    0.9347 H         1 <0>         0.0579
     72 H34         4.9986    7.1962    3.8630 H         1 <0>         0.0571
     73 H35         5.2784    8.0349    2.3297 H         1 <0>         0.0503
     74 H36         7.0421    2.3587    0.4881 H         1 <0>         0.0993
     75 H37         9.1142    6.7979   -3.6499 H         1 <0>         0.3700
     76 H38         8.8693    7.9327   -2.3437 H         1 <0>         0.3660
     77 H39         5.9996    9.3711    4.3277 H         1 <0>         0.3465
     78 H40         7.4997    8.7018    3.7315 H         1 <0>         0.3446
     79 H41         3.4772    3.9862    2.2733 H         1 <0>         0.3148
     80 H42         4.8120    3.9176   -0.5391 H         1 <0>         0.3220
@<TRIPOS>BOND
     1    1    2 ar
     2    1    3 ar
     3    2    4 ar
     4    3    5 ar
     5    4    6 ar
     6    5    6 ar
     7    6   23 1
     8    7   22 1
     9    7   29 am
    10    7   35 2
    11    8    9 1
    12    8   28 1
    13    8   36 2
    14    9   33 am
    15    9   37 2
    16   10   20 1
    17   10   34 am
    18   10   38 2
    19   11   12 1
    20   11   13 1
    21   12   14 1
    22   13   15 1
    23   14   21 1
    24   15   21 1
    25   16   18 1
    26   16   20 1
    27   17   19 1
    28   17   22 1
    29   18   30 1
    30   19   30 1
    31   20   29 1
    32   21   33 1
    33   22   23 1
    34   22   31 1
    35   24   25 1
    36   24   26 1
    37   25   27 1
    38   26   28 1
    39   27   32 1
    40   28   34 1
    41   29   30 1
    42    1   39 1
    43    2   40 1
    44    3   41 1
    45    4   42 1
    46    5   43 1
    47   11   44 1
    48   11   45 1
    49   12   46 1
    50   12   47 1
    51   13   48 1
    52   13   49 1
    53   14   50 1
    54   14   51 1
    55   15   52 1
    56   15   53 1
    57   16   54 1
    58   16   55 1
    59   17   56 1
    60   17   57 1
    61   18   58 1
    62   18   59 1
    63   19   60 1
    64   19   61 1
    65   20   62 1
    66   21   63 1
    67   23   64 1
    68   23   65 1
    69   24   66 1
    70   24   67 1
    71   25   68 1
    72   25   69 1
    73   26   70 1
    74   26   71 1
    75   27   72 1
    76   27   73 1
    77   28   74 1
    78   31   75 1
    79   31   76 1
    80   32   77 1
    81   32   78 1
    82   33   79 1
    83   34   80 1
@<TRIPOS>MOLECULE
1a46_ligand_17
   80    83     0     0     0
SMALL
USER_CHARGES

mmff94s_NoEstat = 81.02
@<TRIPOS>ATOM
      1 C1         11.2165    5.1344   -9.5699 C.ar      1 <0>        -0.1300
      2 C2         11.8039    4.7828   -8.3546 C.ar      1 <0>        -0.1323
      3 C3          9.9328    5.6797   -9.5922 C.ar      1 <0>        -0.1309
      4 C4         11.1077    4.9765   -7.1616 C.ar      1 <0>        -0.1275
      5 C5          9.2366    5.8734   -8.3991 C.ar      1 <0>        -0.1272
      6 C6          9.8285    5.5206   -7.1916 C.ar      1 <0>        -0.0843
      7 C7          7.4784    4.7027   -4.2310 C.2       1 <0>         0.6709
      8 C8          5.2358    2.3798    1.5634 C.2       1 <0>         0.4867
      9 C9          4.0737    1.7586    0.8450 C.2       1 <0>         0.5883
     10 C10         6.2126    3.1256   -1.7338 C.2       1 <0>         0.6572
     11 C11        -0.4193    3.6035    1.7432 C.3       1 <0>        -0.0802
     12 C12         0.2923    2.3853    2.3260 C.3       1 <0>        -0.0765
     13 C13         0.4577    4.3505    0.7419 C.3       1 <0>        -0.0774
     14 C14         0.8140    1.4591    1.2267 C.3       1 <0>        -0.0953
     15 C15         0.9788    3.4196   -0.3539 C.3       1 <0>        -0.0906
     16 C16         4.3868    2.9365   -3.4414 C.3       1 <0>        -0.0871
     17 C17         7.2608    4.1580   -6.6868 C.3       1 <0>        -0.0716
     18 C18         5.0537    2.0131   -4.4592 C.3       1 <0>         0.1333
     19 C19         6.0339    3.3363   -6.2552 C.3       1 <0>         0.1246
     20 C20         5.5372    3.7637   -2.9085 C.3       1 <0>         0.0606
     21 C21         1.6997    2.1861    0.2060 C.3       1 <0>         0.1012
     22 C22         8.2469    4.4948   -5.5436 C.3       1 <0>         0.1554
     23 C23         9.0796    5.7289   -5.9083 C.3       1 <0>        -0.0356
     24 C24         8.0800    4.9598    0.7851 C.3       1 <0>        -0.0795
     25 C25         8.7880    6.0338    1.6192 C.3       1 <0>        -0.1203
     26 C26         6.9719    4.2276    1.5544 C.3       1 <0>        -0.0920
     27 C27         9.9095    6.7454    0.8629 C.3       1 <0>         0.1502
     28 C28         6.2906    3.1130    0.7514 C.3       1 <0>         0.0224
     29 N1          6.4904    3.7576   -4.0019 N.am      1 <0>        -0.3553
     30 N2          6.2438    2.7368   -4.9387 N.3       1 <0>        -0.4320
     31 N3          9.1632    3.3713   -5.2994 N.3       1 <0>        -0.9031
     32 N4         10.5470    7.7366    1.7233 N.3       1 <0>        -0.9068
     33 N5          2.9687    2.5774    0.8237 N.am      1 <0>        -0.5526
     34 N6          5.7762    3.5917   -0.5046 N.am      1 <0>        -0.5576
     35 O1          7.7368    5.6223   -3.4546 O.2       1 <0>        -0.6710
     36 O2          5.3022    2.1819    2.7699 O.2       1 <0>        -0.4901
     37 O3          4.2153    0.6340    0.3935 O.2       1 <0>        -0.5902
     38 O4          7.0689    2.2691   -1.9210 O.2       1 <0>        -0.5833
     39 H1         11.7586    4.9835  -10.4989 H         1 <0>         0.1320
     40 H2         12.8034    4.3582   -8.3374 H         1 <0>         0.1324
     41 H3          9.4755    5.9533  -10.5385 H         1 <0>         0.1328
     42 H4         11.5733    4.6996   -6.2195 H         1 <0>         0.1324
     43 H5          8.2369    6.2989   -8.4262 H         1 <0>         0.1434
     44 H6         -1.3424    3.2805    1.2460 H         1 <0>         0.0405
     45 H7         -0.7142    4.2808    2.5526 H         1 <0>         0.0421
     46 H8          1.1249    2.7162    2.9585 H         1 <0>         0.0362
     47 H9         -0.3974    1.8327    2.9743 H         1 <0>         0.0439
     48 H10        -0.1164    5.1662    0.2877 H         1 <0>         0.0350
     49 H11         1.3017    4.8123    1.2685 H         1 <0>         0.0428
     50 H12         1.3688    0.6319    1.6861 H         1 <0>         0.0663
     51 H13        -0.0418    1.0151    0.7025 H         1 <0>         0.0466
     52 H14         0.1324    3.0884   -0.9690 H         1 <0>         0.0493
     53 H15         1.6506    3.9815   -1.0141 H         1 <0>         0.0520
     54 H16         3.6738    3.5897   -3.9595 H         1 <0>         0.0915
     55 H17         3.8488    2.3812   -2.6670 H         1 <0>         0.0601
     56 H18         7.7933    3.6252   -7.4865 H         1 <0>         0.0688
     57 H19         6.8963    5.0889   -7.1420 H         1 <0>         0.0630
     58 H20         5.3910    1.1000   -3.9542 H         1 <0>         0.0807
     59 H21         4.3651    1.7081   -5.2548 H         1 <0>         0.0380
     60 H22         5.1498    3.9888   -6.2523 H         1 <0>         0.0484
     61 H23         5.8493    2.5563   -7.0035 H         1 <0>         0.0697
     62 H24         5.2534    4.7844   -2.6367 H         1 <0>         0.0843
     63 H25         1.9606    1.5054   -0.6111 H         1 <0>         0.0831
     64 H26         9.7736    5.9418   -5.0932 H         1 <0>         0.0704
     65 H27         8.4167    6.5923   -5.9906 H         1 <0>         0.0718
     66 H28         7.6494    5.4516   -0.0948 H         1 <0>         0.0606
     67 H29         8.8216    4.2418    0.4157 H         1 <0>         0.0458
     68 H30         8.0356    6.7709    1.9287 H         1 <0>         0.0375
     69 H31         9.1825    5.5824    2.5383 H         1 <0>         0.0392
     70 H32         6.2171    4.9575    1.8728 H         1 <0>         0.0606
     71 H33         7.3929    3.7874    2.4660 H         1 <0>         0.0579
     72 H34         9.5108    7.2416   -0.0285 H         1 <0>         0.0571
     73 H35        10.6706    6.0303    0.5375 H         1 <0>         0.0503
     74 H36         7.0421    2.3587    0.4881 H         1 <0>         0.0993
     75 H37         8.8040    2.4509   -5.4050 H         1 <0>         0.3700
     76 H38        10.0264    3.5689   -4.8487 H         1 <0>         0.3660
     77 H39        11.2163    8.3531    1.3147 H         1 <0>         0.3465
     78 H40        10.4498    7.6340    2.7108 H         1 <0>         0.3446
     79 H41         3.0357    3.4942    1.2556 H         1 <0>         0.3148
     80 H42         5.0545    4.3100   -0.4888 H         1 <0>         0.3220
@<TRIPOS>BOND
     1    1    2 ar
     2    1    3 ar
     3    2    4 ar
     4    3    5 ar
     5    4    6 ar
     6    5    6 ar
     7    6   23 1
     8    7   22 1
     9    7   29 am
    10    7   35 2
    11    8    9 1
    12    8   28 1
    13    8   36 2
    14    9   33 am
    15    9   37 2
    16   10   20 1
    17   10   34 am
    18   10   38 2
    19   11   12 1
    20   11   13 1
    21   12   14 1
    22   13   15 1
    23   14   21 1
    24   15   21 1
    25   16   18 1
    26   16   20 1
    27   17   19 1
    28   17   22 1
    29   18   30 1
    30   19   30 1
    31   20   29 1
    32   21   33 1
    33   22   23 1
    34   22   31 1
    35   24   25 1
    36   24   26 1
    37   25   27 1
    38   26   28 1
    39   27   32 1
    40   28   34 1
    41   29   30 1
    42    1   39 1
    43    2   40 1
    44    3   41 1
    45    4   42 1
    46    5   43 1
    47   11   44 1
    48   11   45 1
    49   12   46 1
    50   12   47 1
    51   13   48 1
    52   13   49 1
    53   14   50 1
    54   14   51 1
    55   15   52 1
    56   15   53 1
    57   16   54 1
    58   16   55 1
    59   17   56 1
    60   17   57 1
    61   18   58 1
    62   18   59 1
    63   19   60 1
    64   19   61 1
    65   20   62 1
    66   21   63 1
    67   23   64 1
    68   23   65 1
    69   24   66 1
    70   24   67 1
    71   25   68 1
    72   25   69 1
    73   26   70 1
    74   26   71 1
    75   27   72 1
    76   27   73 1
    77   28   74 1
    78   31   75 1
    79   31   76 1
    80   32   77 1
    81   32   78 1
    82   33   79 1
    83   34   80 1
@<TRIPOS>MOLECULE
1a46_ligand_18
   80    83     0     0     0
SMALL
USER_CHARGES

mmff94s_NoEstat = 81.17
@<TRIPOS>ATOM
      1 C1          9.3778    1.4071  -10.5376 C.ar      1 <0>        -0.1300
      2 C2         10.0902    1.0682   -9.3873 C.ar      1 <0>        -0.1323
      3 C3          8.4252    2.4251  -10.4935 C.ar      1 <0>        -0.1309
      4 C4          9.8499    1.7472   -8.1928 C.ar      1 <0>        -0.1275
      5 C5          8.1849    3.1040   -9.2989 C.ar      1 <0>        -0.1272
      6 C6          8.8988    2.7607   -8.1564 C.ar      1 <0>        -0.0843
      7 C7          7.2708    3.5496   -4.7381 C.2       1 <0>         0.6709
      8 C8          5.2358    2.3798    1.5634 C.2       1 <0>         0.4867
      9 C9          4.0737    1.7586    0.8450 C.2       1 <0>         0.5883
     10 C10         6.2126    3.1256   -1.7338 C.2       1 <0>         0.6572
     11 C11        -0.4193    3.6035    1.7432 C.3       1 <0>        -0.0802
     12 C12         0.2923    2.3853    2.3260 C.3       1 <0>        -0.0765
     13 C13         0.4577    4.3505    0.7419 C.3       1 <0>        -0.0774
     14 C14         0.8140    1.4591    1.2267 C.3       1 <0>        -0.0953
     15 C15         0.9788    3.4196   -0.3539 C.3       1 <0>        -0.0906
     16 C16         4.0677    3.4116   -2.9998 C.3       1 <0>        -0.0871
     17 C17         6.2374    2.7118   -6.8841 C.3       1 <0>        -0.0716
     18 C18         4.0600    2.1270   -3.8260 C.3       1 <0>         0.1333
     19 C19         4.9528    2.5709   -6.0494 C.3       1 <0>         0.1246
     20 C20         5.5372    3.7637   -2.9085 C.3       1 <0>         0.0606
     21 C21         1.6997    2.1861    0.2060 C.3       1 <0>         0.1012
     22 C22         7.5393    2.8062   -6.0542 C.3       1 <0>         0.1554
     23 C23         8.6404    3.4910   -6.8715 C.3       1 <0>        -0.0356
     24 C24         8.0800    4.9598    0.7851 C.3       1 <0>        -0.0795
     25 C25         8.7880    6.0338    1.6192 C.3       1 <0>        -0.1203
     26 C26         6.9719    4.2276    1.5544 C.3       1 <0>        -0.0920
     27 C27         9.9095    6.7454    0.8629 C.3       1 <0>         0.1502
     28 C28         6.2906    3.1130    0.7514 C.3       1 <0>         0.0224
     29 N1          6.1017    3.1624   -4.1017 N.am      1 <0>        -0.3553
     30 N2          5.2634    2.1873   -4.6736 N.3       1 <0>        -0.4320
     31 N3          8.0097    1.4670   -5.6708 N.3       1 <0>        -0.9031
     32 N4         10.5470    7.7366    1.7233 N.3       1 <0>        -0.9068
     33 N5          2.9687    2.5774    0.8237 N.am      1 <0>        -0.5526
     34 N6          5.7762    3.5917   -0.5046 N.am      1 <0>        -0.5576
     35 O1          8.0408    4.4006   -4.2931 O.2       1 <0>        -0.6710
     36 O2          5.3022    2.1819    2.7699 O.2       1 <0>        -0.4901
     37 O3          4.2153    0.6340    0.3935 O.2       1 <0>        -0.5902
     38 O4          7.0689    2.2691   -1.9210 O.2       1 <0>        -0.5833
     39 H1          9.5648    0.8784  -11.4677 H         1 <0>         0.1320
     40 H2         10.8319    0.2756   -9.4218 H         1 <0>         0.1324
     41 H3          7.8704    2.6887  -11.3892 H         1 <0>         0.1328
     42 H4         10.4098    1.4763   -7.3016 H         1 <0>         0.1324
     43 H5          7.4407    3.8957   -9.2740 H         1 <0>         0.1434
     44 H6         -1.3424    3.2805    1.2460 H         1 <0>         0.0405
     45 H7         -0.7142    4.2808    2.5526 H         1 <0>         0.0421
     46 H8          1.1249    2.7162    2.9585 H         1 <0>         0.0362
     47 H9         -0.3974    1.8327    2.9743 H         1 <0>         0.0439
     48 H10        -0.1164    5.1662    0.2877 H         1 <0>         0.0350
     49 H11         1.3017    4.8123    1.2685 H         1 <0>         0.0428
     50 H12         1.3688    0.6319    1.6861 H         1 <0>         0.0663
     51 H13        -0.0418    1.0151    0.7025 H         1 <0>         0.0466
     52 H14         0.1324    3.0884   -0.9690 H         1 <0>         0.0493
     53 H15         1.6506    3.9815   -1.0141 H         1 <0>         0.0520
     54 H16         3.5352    4.1976   -3.5496 H         1 <0>         0.0915
     55 H17         3.5853    3.2820   -2.0262 H         1 <0>         0.0601
     56 H18         6.3096    1.8704   -7.5867 H         1 <0>         0.0688
     57 H19         6.1343    3.6107   -7.5070 H         1 <0>         0.0630
     58 H20         4.1583    1.2642   -3.1562 H         1 <0>         0.0807
     59 H21         3.1259    1.9993   -4.3842 H         1 <0>         0.0380
     60 H22         4.4028    3.5219   -6.0765 H         1 <0>         0.0484
     61 H23         4.3072    1.8183   -6.5178 H         1 <0>         0.0697
     62 H24         5.7284    4.8402   -2.8795 H         1 <0>         0.0843
     63 H25         1.9606    1.5054   -0.6111 H         1 <0>         0.0831
     64 H26         9.5506    3.5379   -6.2709 H         1 <0>         0.0704
     65 H27         8.3431    4.5219   -7.0731 H         1 <0>         0.0718
     66 H28         7.6494    5.4516   -0.0948 H         1 <0>         0.0606
     67 H29         8.8216    4.2418    0.4157 H         1 <0>         0.0458
     68 H30         8.0356    6.7709    1.9287 H         1 <0>         0.0375
     69 H31         9.1825    5.5824    2.5383 H         1 <0>         0.0392
     70 H32         6.2171    4.9575    1.8728 H         1 <0>         0.0606
     71 H33         7.3929    3.7874    2.4660 H         1 <0>         0.0579
     72 H34         9.5108    7.2416   -0.0285 H         1 <0>         0.0571
     73 H35        10.6706    6.0303    0.5375 H         1 <0>         0.0503
     74 H36         7.0421    2.3587    0.4881 H         1 <0>         0.0993
     75 H37         7.3242    0.7786   -5.4626 H         1 <0>         0.3700
     76 H38         8.9706    1.3637   -5.4396 H         1 <0>         0.3660
     77 H39        11.2163    8.3531    1.3147 H         1 <0>         0.3465
     78 H40        10.4498    7.6340    2.7108 H         1 <0>         0.3446
     79 H41         3.0357    3.4942    1.2556 H         1 <0>         0.3148
     80 H42         5.0545    4.3100   -0.4888 H         1 <0>         0.3220
@<TRIPOS>BOND
     1    1    2 ar
     2    1    3 ar
     3    2    4 ar
     4    3    5 ar
     5    4    6 ar
     6    5    6 ar
     7    6   23 1
     8    7   22 1
     9    7   29 am
    10    7   35 2
    11    8    9 1
    12    8   28 1
    13    8   36 2
    14    9   33 am
    15    9   37 2
    16   10   20 1
    17   10   34 am
    18   10   38 2
    19   11   12 1
    20   11   13 1
    21   12   14 1
    22   13   15 1
    23   14   21 1
    24   15   21 1
    25   16   18 1
    26   16   20 1
    27   17   19 1
    28   17   22 1
    29   18   30 1
    30   19   30 1
    31   20   29 1
    32   21   33 1
    33   22   23 1
    34   22   31 1
    35   24   25 1
    36   24   26 1
    37   25   27 1
    38   26   28 1
    39   27   32 1
    40   28   34 1
    41   29   30 1
    42    1   39 1
    43    2   40 1
    44    3   41 1
    45    4   42 1
    46    5   43 1
    47   11   44 1
    48   11   45 1
    49   12   46 1
    50   12   47 1
    51   13   48 1
    52   13   49 1
    53   14   50 1
    54   14   51 1
    55   15   52 1
    56   15   53 1
    57   16   54 1
    58   16   55 1
    59   17   56 1
    60   17   57 1
    61   18   58 1
    62   18   59 1
    63   19   60 1
    64   19   61 1
    65   20   62 1
    66   21   63 1
    67   23   64 1
    68   23   65 1
    69   24   66 1
    70   24   67 1
    71   25   68 1
    72   25   69 1
    73   26   70 1
    74   26   71 1
    75   27   72 1
    76   27   73 1
    77   28   74 1
    78   31   75 1
    79   31   76 1
    80   32   77 1
    81   32   78 1
    82   33   79 1
    83   34   80 1
@<TRIPOS>MOLECULE
1a46_ligand_19
   80    83     0     0     0
SMALL
USER_CHARGES

mmff94s_NoEstat = 81.26
@<TRIPOS>ATOM
      1 C1         11.0121    9.2104   -7.9325 C.ar      1 <0>        -0.1300
      2 C2         11.5385    8.8832   -6.6829 C.ar      1 <0>        -0.1323
      3 C3          9.6345    9.1559   -8.1449 C.ar      1 <0>        -0.1309
      4 C4         10.6874    8.5015   -5.6458 C.ar      1 <0>        -0.1275
      5 C5          8.7834    8.7742   -7.1078 C.ar      1 <0>        -0.1272
      6 C6          9.3154    8.4495   -5.8650 C.ar      1 <0>        -0.0843
      7 C7          7.2411    6.0968   -3.6024 C.2       1 <0>         0.6709
      8 C8          5.2358    2.3798    1.5634 C.2       1 <0>         0.4867
      9 C9          3.8230    2.3549    1.0577 C.2       1 <0>         0.5883
     10 C10         6.5256    3.6321   -1.6689 C.2       1 <0>         0.6572
     11 C11         0.7123    5.8436    2.9116 C.3       1 <0>        -0.0802
     12 C12         0.9628    4.4879    3.5669 C.3       1 <0>        -0.0765
     13 C13         1.5632    6.0367    1.6592 C.3       1 <0>        -0.0774
     14 C14         0.7792    3.3400    2.5733 C.3       1 <0>        -0.0953
     15 C15         1.3778    4.8853    0.6699 C.3       1 <0>        -0.0906
     16 C16         5.2113    3.0694   -3.7284 C.3       1 <0>        -0.0871
     17 C17         7.6012    6.0599   -6.1012 C.3       1 <0>        -0.0716
     18 C18         6.3446    2.7580   -4.7039 C.3       1 <0>         0.1333
     19 C19         6.8355    4.7264   -6.0536 C.3       1 <0>         0.1246
     20 C20         5.7868    4.1659   -2.8575 C.3       1 <0>         0.0606
     21 C21         1.6248    3.5100    1.3041 C.3       1 <0>         0.1012
     22 C22         8.1773    6.5224   -4.7422 C.3       1 <0>         0.1554
     23 C23         8.4000    8.0389   -4.7494 C.3       1 <0>        -0.0356
     24 C24         6.0158    5.3379    2.0114 C.3       1 <0>        -0.0795
     25 C25         6.7209    6.4716    2.7653 C.3       1 <0>        -0.1203
     26 C26         6.9719    4.2276    1.5544 C.3       1 <0>        -0.0920
     27 C27         5.7742    7.5909    3.1979 C.3       1 <0>         0.1502
     28 C28         6.2906    3.1130    0.7514 C.3       1 <0>         0.0224
     29 N1          6.7674    4.7991   -3.7183 N.am      1 <0>        -0.3553
     30 N2          7.1280    4.0001   -4.8193 N.3       1 <0>        -0.4320
     31 N3          9.4643    5.8648   -4.4722 N.3       1 <0>        -0.9031
     32 N4          6.5168    8.6391    3.8900 N.3       1 <0>        -0.9068
     33 N5          3.0460    3.3433    1.6158 N.am      1 <0>        -0.5526
     34 N6          5.7762    3.5917   -0.5046 N.am      1 <0>        -0.5576
     35 O1          6.9567    6.8465   -2.6685 O.2       1 <0>        -0.6710
     36 O2          5.4669    1.7271    2.5732 O.2       1 <0>        -0.4901
     37 O3          3.5174    1.4867    0.2568 O.2       1 <0>        -0.5902
     38 O4          7.6924    3.2783   -1.7917 O.2       1 <0>        -0.5833
     39 H1         11.6747    9.5075   -8.7400 H         1 <0>         0.1320
     40 H2         12.6111    8.9257   -6.5176 H         1 <0>         0.1324
     41 H3          9.2248    9.4105   -9.1180 H         1 <0>         0.1328
     42 H4         11.1066    8.2484   -4.6756 H         1 <0>         0.1324
     43 H5          7.7115    8.7346   -7.2826 H         1 <0>         0.1434
     44 H6         -0.3487    5.9267    2.6452 H         1 <0>         0.0405
     45 H7          0.9240    6.6448    3.6287 H         1 <0>         0.0421
     46 H8          1.9790    4.4631    3.9787 H         1 <0>         0.0362
     47 H9          0.2761    4.3557    4.4108 H         1 <0>         0.0439
     48 H10         1.2949    6.9828    1.1752 H         1 <0>         0.0350
     49 H11         2.6195    6.1150    1.9435 H         1 <0>         0.0428
     50 H12         1.0269    2.3928    3.0676 H         1 <0>         0.0663
     51 H13        -0.2796    3.2832    2.2902 H         1 <0>         0.0466
     52 H14         0.3534    4.9173    0.2773 H         1 <0>         0.0493
     53 H15         2.0500    5.0329   -0.1841 H         1 <0>         0.0520
     54 H16         4.3507    3.4578   -4.2870 H         1 <0>         0.0915
     55 H17         4.8908    2.1856   -3.1683 H         1 <0>         0.0601
     56 H18         8.4120    5.9885   -6.8390 H         1 <0>         0.0688
     57 H19         6.9149    6.8257   -6.4876 H         1 <0>         0.0630
     58 H20         6.9926    1.9855   -4.2725 H         1 <0>         0.0807
     59 H21         5.9735    2.3729   -5.6602 H         1 <0>         0.0380
     60 H22         5.7592    4.9288   -6.1435 H         1 <0>         0.0484
     61 H23         7.1185    4.1245   -6.9255 H         1 <0>         0.0697
     62 H24         5.0406    4.8864   -2.5107 H         1 <0>         0.0843
     63 H25         1.3801    2.7203    0.5860 H         1 <0>         0.0831
     64 H26         8.8151    8.3408   -3.7861 H         1 <0>         0.0704
     65 H27         7.4343    8.5386   -4.8464 H         1 <0>         0.0718
     66 H28         5.2579    4.9142    2.6804 H         1 <0>         0.0606
     67 H29         5.4809    5.7546    1.1500 H         1 <0>         0.0458
     68 H30         7.2000    6.0392    3.6534 H         1 <0>         0.0375
     69 H31         7.5258    6.8807    2.1417 H         1 <0>         0.0392
     70 H32         7.4599    3.7926    2.4354 H         1 <0>         0.0606
     71 H33         7.7645    4.6634    0.9347 H         1 <0>         0.0579
     72 H34         4.9986    7.1962    3.8630 H         1 <0>         0.0571
     73 H35         5.2784    8.0349    2.3297 H         1 <0>         0.0503
     74 H36         7.0421    2.3587    0.4881 H         1 <0>         0.0993
     75 H37         9.5764    4.9261   -4.7778 H         1 <0>         0.3700
     76 H38        10.0811    6.3037   -3.8286 H         1 <0>         0.3660
     77 H39         5.9996    9.3711    4.3277 H         1 <0>         0.3465
     78 H40         7.4997    8.7018    3.7315 H         1 <0>         0.3446
     79 H41         3.4772    3.9862    2.2733 H         1 <0>         0.3148
     80 H42         4.8120    3.9176   -0.5391 H         1 <0>         0.3220
@<TRIPOS>BOND
     1    1    2 ar
     2    1    3 ar
     3    2    4 ar
     4    3    5 ar
     5    4    6 ar
     6    5    6 ar
     7    6   23 1
     8    7   22 1
     9    7   29 am
    10    7   35 2
    11    8    9 1
    12    8   28 1
    13    8   36 2
    14    9   33 am
    15    9   37 2
    16   10   20 1
    17   10   34 am
    18   10   38 2
    19   11   12 1
    20   11   13 1
    21   12   14 1
    22   13   15 1
    23   14   21 1
    24   15   21 1
    25   16   18 1
    26   16   20 1
    27   17   19 1
    28   17   22 1
    29   18   30 1
    30   19   30 1
    31   20   29 1
    32   21   33 1
    33   22   23 1
    34   22   31 1
    35   24   25 1
    36   24   26 1
    37   25   27 1
    38   26   28 1
    39   27   32 1
    40   28   34 1
    41   29   30 1
    42    1   39 1
    43    2   40 1
    44    3   41 1
    45    4   42 1
    46    5   43 1
    47   11   44 1
    48   11   45 1
    49   12   46 1
    50   12   47 1
    51   13   48 1
    52   13   49 1
    53   14   50 1
    54   14   51 1
    55   15   52 1
    56   15   53 1
    57   16   54 1
    58   16   55 1
    59   17   56 1
    60   17   57 1
    61   18   58 1
    62   18   59 1
    63   19   60 1
    64   19   61 1
    65   20   62 1
    66   21   63 1
    67   23   64 1
    68   23   65 1
    69   24   66 1
    70   24   67 1
    71   25   68 1
    72   25   69 1
    73   26   70 1
    74   26   71 1
    75   27   72 1
    76   27   73 1
    77   28   74 1
    78   31   75 1
    79   31   76 1
    80   32   77 1
    81   32   78 1
    82   33   79 1
    83   34   80 1
@<TRIPOS>MOLECULE
1a46_ligand_20
   80    83     0     0     0
SMALL
USER_CHARGES

mmff94s_NoEstat = 81.27
@<TRIPOS>ATOM
      1 C1         11.0121    9.2104   -7.9325 C.ar      1 <0>        -0.1300
      2 C2         11.5385    8.8832   -6.6829 C.ar      1 <0>        -0.1323
      3 C3          9.6345    9.1559   -8.1449 C.ar      1 <0>        -0.1309
      4 C4         10.6874    8.5015   -5.6458 C.ar      1 <0>        -0.1275
      5 C5          8.7834    8.7742   -7.1078 C.ar      1 <0>        -0.1272
      6 C6          9.3154    8.4495   -5.8650 C.ar      1 <0>        -0.0843
      7 C7          7.2411    6.0968   -3.6024 C.2       1 <0>         0.6709
      8 C8          5.2358    2.3798    1.5634 C.2       1 <0>         0.4867
      9 C9          4.0737    1.7586    0.8450 C.2       1 <0>         0.5883
     10 C10         6.5256    3.6321   -1.6689 C.2       1 <0>         0.6572
     11 C11        -0.3101    1.8066    3.1204 C.3       1 <0>        -0.0802
     12 C12         0.7521    0.7144    3.0271 C.3       1 <0>        -0.0765
     13 C13         0.1163    3.0793    2.3936 C.3       1 <0>        -0.0774
     14 C14         1.1457    0.4346    1.5761 C.3       1 <0>        -0.0953
     15 C15         0.5110    2.7940    0.9439 C.3       1 <0>        -0.0906
     16 C16         5.2113    3.0694   -3.7284 C.3       1 <0>        -0.0871
     17 C17         7.6012    6.0599   -6.1012 C.3       1 <0>        -0.0716
     18 C18         6.3446    2.7580   -4.7039 C.3       1 <0>         0.1333
     19 C19         6.8355    4.7264   -6.0536 C.3       1 <0>         0.1246
     20 C20         5.7868    4.1659   -2.8575 C.3       1 <0>         0.0606
     21 C21         1.5791    1.6990    0.8223 C.3       1 <0>         0.1012
     22 C22         8.1773    6.5224   -4.7422 C.3       1 <0>         0.1554
     23 C23         8.4000    8.0389   -4.7494 C.3       1 <0>        -0.0356
     24 C24         6.0158    5.3379    2.0114 C.3       1 <0>        -0.0795
     25 C25         6.7209    6.4716    2.7653 C.3       1 <0>        -0.1203
     26 C26         6.9719    4.2276    1.5544 C.3       1 <0>        -0.0920
     27 C27         5.7742    7.5909    3.1979 C.3       1 <0>         0.1502
     28 C28         6.2906    3.1130    0.7514 C.3       1 <0>         0.0224
     29 N1          6.7674    4.7991   -3.7183 N.am      1 <0>        -0.3553
     30 N2          7.1280    4.0001   -4.8193 N.3       1 <0>        -0.4320
     31 N3          9.4643    5.8648   -4.4722 N.3       1 <0>        -0.9031
     32 N4          6.5168    8.6391    3.8900 N.3       1 <0>        -0.9068
     33 N5          2.8617    2.1823    1.3384 N.am      1 <0>        -0.5526
     34 N6          5.7762    3.5917   -0.5046 N.am      1 <0>        -0.5576
     35 O1          6.9567    6.8465   -2.6685 O.2       1 <0>        -0.6710
     36 O2          5.3022    2.1819    2.7699 O.2       1 <0>        -0.4901
     37 O3          4.3127    0.9617   -0.0474 O.2       1 <0>        -0.5902
     38 O4          7.6924    3.2783   -1.7917 O.2       1 <0>        -0.5833
     39 H1         11.6747    9.5075   -8.7400 H         1 <0>         0.1320
     40 H2         12.6111    8.9257   -6.5176 H         1 <0>         0.1324
     41 H3          9.2248    9.4105   -9.1180 H         1 <0>         0.1328
     42 H4         11.1066    8.2484   -4.6756 H         1 <0>         0.1324
     43 H5          7.7115    8.7346   -7.2826 H         1 <0>         0.1434
     44 H6         -1.2478    1.4382    2.6861 H         1 <0>         0.0405
     45 H7         -0.5145    2.0336    4.1728 H         1 <0>         0.0421
     46 H8          1.6374    1.0154    3.6002 H         1 <0>         0.0362
     47 H9          0.3743   -0.2054    3.4883 H         1 <0>         0.0439
     48 H10        -0.7038    3.8062    2.4141 H         1 <0>         0.0350
     49 H11         0.9594    3.5381    2.9241 H         1 <0>         0.0428
     50 H12         1.9510   -0.3097    1.5585 H         1 <0>         0.0663
     51 H13         0.2884   -0.0125    1.0569 H         1 <0>         0.0466
     52 H14        -0.3828    2.4825    0.3884 H         1 <0>         0.0493
     53 H15         0.8670    3.7212    0.4787 H         1 <0>         0.0520
     54 H16         4.3507    3.4578   -4.2870 H         1 <0>         0.0915
     55 H17         4.8908    2.1856   -3.1683 H         1 <0>         0.0601
     56 H18         8.4120    5.9885   -6.8390 H         1 <0>         0.0688
     57 H19         6.9149    6.8257   -6.4876 H         1 <0>         0.0630
     58 H20         6.9926    1.9855   -4.2725 H         1 <0>         0.0807
     59 H21         5.9735    2.3729   -5.6602 H         1 <0>         0.0380
     60 H22         5.7592    4.9288   -6.1435 H         1 <0>         0.0484
     61 H23         7.1185    4.1245   -6.9255 H         1 <0>         0.0697
     62 H24         5.0406    4.8864   -2.5107 H         1 <0>         0.0843
     63 H25         1.7501    1.4622   -0.2331 H         1 <0>         0.0831
     64 H26         8.8151    8.3408   -3.7861 H         1 <0>         0.0704
     65 H27         7.4343    8.5386   -4.8464 H         1 <0>         0.0718
     66 H28         5.2579    4.9142    2.6804 H         1 <0>         0.0606
     67 H29         5.4809    5.7546    1.1500 H         1 <0>         0.0458
     68 H30         7.2000    6.0392    3.6534 H         1 <0>         0.0375
     69 H31         7.5258    6.8807    2.1417 H         1 <0>         0.0392
     70 H32         7.4599    3.7926    2.4354 H         1 <0>         0.0606
     71 H33         7.7645    4.6634    0.9347 H         1 <0>         0.0579
     72 H34         4.9986    7.1962    3.8630 H         1 <0>         0.0571
     73 H35         5.2784    8.0349    2.3297 H         1 <0>         0.0503
     74 H36         7.0421    2.3587    0.4881 H         1 <0>         0.0993
     75 H37         9.5764    4.9261   -4.7778 H         1 <0>         0.3700
     76 H38        10.0811    6.3037   -3.8286 H         1 <0>         0.3660
     77 H39         5.9996    9.3711    4.3277 H         1 <0>         0.3465
     78 H40         7.4997    8.7018    3.7315 H         1 <0>         0.3446
     79 H41         2.8559    2.8605    2.0944 H         1 <0>         0.3148
     80 H42         4.8120    3.9176   -0.5391 H         1 <0>         0.3220
@<TRIPOS>BOND
     1    1    2 ar
     2    1    3 ar
     3    2    4 ar
     4    3    5 ar
     5    4    6 ar
     6    5    6 ar
     7    6   23 1
     8    7   22 1
     9    7   29 am
    10    7   35 2
    11    8    9 1
    12    8   28 1
    13    8   36 2
    14    9   33 am
    15    9   37 2
    16   10   20 1
    17   10   34 am
    18   10   38 2
    19   11   12 1
    20   11   13 1
    21   12   14 1
    22   13   15 1
    23   14   21 1
    24   15   21 1
    25   16   18 1
    26   16   20 1
    27   17   19 1
    28   17   22 1
    29   18   30 1
    30   19   30 1
    31   20   29 1
    32   21   33 1
    33   22   23 1
    34   22   31 1
    35   24   25 1
    36   24   26 1
    37   25   27 1
    38   26   28 1
    39   27   32 1
    40   28   34 1
    41   29   30 1
    42    1   39 1
    43    2   40 1
    44    3   41 1
    45    4   42 1
    46    5   43 1
    47   11   44 1
    48   11   45 1
    49   12   46 1
    50   12   47 1
    51   13   48 1
    52   13   49 1
    53   14   50 1
    54   14   51 1
    55   15   52 1
    56   15   53 1
    57   16   54 1
    58   16   55 1
    59   17   56 1
    60   17   57 1
    61   18   58 1
    62   18   59 1
    63   19   60 1
    64   19   61 1
    65   20   62 1
    66   21   63 1
    67   23   64 1
    68   23   65 1
    69   24   66 1
    70   24   67 1
    71   25   68 1
    72   25   69 1
    73   26   70 1
    74   26   71 1
    75   27   72 1
    76   27   73 1
    77   28   74 1
    78   31   75 1
    79   31   76 1
    80   32   77 1
    81   32   78 1
    82   33   79 1
    83   34   80 1
@<TRIPOS>MOLECULE
1a46_ligand_21
   80    83     0     0     0
SMALL
USER_CHARGES

mmff94s_NoEstat = 81.34
@<TRIPOS>ATOM
      1 C1          9.1717   11.5998   -4.8818 C.ar      1 <0>        -0.1300
      2 C2          9.5642   11.0570   -3.6583 C.ar      1 <0>        -0.1323
      3 C3          7.9808   11.1858   -5.4786 C.ar      1 <0>        -0.1309
      4 C4          8.7658   10.1002   -3.0316 C.ar      1 <0>        -0.1275
      5 C5          7.1825   10.2289   -4.8519 C.ar      1 <0>        -0.1272
      6 C6          7.5802    9.6924   -3.6325 C.ar      1 <0>        -0.0843
      7 C7          6.2313    6.1878   -2.7072 C.2       1 <0>         0.6709
      8 C8          5.2358    2.3798    1.5634 C.2       1 <0>         0.4867
      9 C9          4.0737    1.7586    0.8450 C.2       1 <0>         0.5883
     10 C10         6.2126    3.1256   -1.7338 C.2       1 <0>         0.6572
     11 C11         5.0270   -1.9782   -2.2411 C.3       1 <0>        -0.0802
     12 C12         4.8199   -0.4904   -2.5121 C.3       1 <0>        -0.0765
     13 C13         4.9383   -2.3038   -0.7525 C.3       1 <0>        -0.0774
     14 C14         3.5153    0.0174   -1.8967 C.3       1 <0>        -0.0953
     15 C15         3.6331   -1.7920   -0.1414 C.3       1 <0>        -0.0906
     16 C16         5.5888    2.9013   -4.1517 C.3       1 <0>        -0.0871
     17 C17         6.9946    7.1086   -4.9309 C.3       1 <0>        -0.0716
     18 C18         6.9015    3.3122   -4.8158 C.3       1 <0>         0.1333
     19 C19         6.8105    5.6670   -5.4355 C.3       1 <0>         0.1246
     20 C20         5.5372    3.7637   -2.9085 C.3       1 <0>         0.0606
     21 C21         3.4011   -0.2972   -0.3991 C.3       1 <0>         0.1012
     22 C22         7.1071    7.2451   -3.3942 C.3       1 <0>         0.1554
     23 C23         6.7215    8.6631   -2.9584 C.3       1 <0>        -0.0356
     24 C24         8.0800    4.9598    0.7851 C.3       1 <0>        -0.0795
     25 C25         8.7880    6.0338    1.6192 C.3       1 <0>        -0.1203
     26 C26         6.9719    4.2276    1.5544 C.3       1 <0>        -0.0920
     27 C27         9.9095    6.7454    0.8629 C.3       1 <0>         0.1502
     28 C28         6.2906    3.1130    0.7514 C.3       1 <0>         0.0224
     29 N1          6.3255    4.9256   -3.2726 N.am      1 <0>        -0.3553
     30 N2          7.1486    4.7012   -4.3918 N.3       1 <0>        -0.4320
     31 N3          8.4826    6.9796   -2.9479 N.3       1 <0>        -0.9031
     32 N4         10.5470    7.7366    1.7233 N.3       1 <0>        -0.9068
     33 N5          4.3625    0.5037    0.3619 N.am      1 <0>        -0.5526
     34 N6          5.7762    3.5917   -0.5046 N.am      1 <0>        -0.5576
     35 O1          5.5247    6.4489   -1.7337 O.2       1 <0>        -0.6710
     36 O2          5.3022    2.1819    2.7699 O.2       1 <0>        -0.4901
     37 O3          3.0463    2.4099    0.7491 O.2       1 <0>        -0.5902
     38 O4          7.0689    2.2691   -1.9210 O.2       1 <0>        -0.5833
     39 H1          9.7933   12.3448   -5.3699 H         1 <0>         0.1320
     40 H2         10.4914   11.3794   -3.1938 H         1 <0>         0.1324
     41 H3          7.6754   11.6084   -6.4314 H         1 <0>         0.1328
     42 H4          9.0796    9.6828   -2.0785 H         1 <0>         0.1324
     43 H5          6.2564    9.9124   -5.3244 H         1 <0>         0.1434
     44 H6          4.2675   -2.5545   -2.7839 H         1 <0>         0.0405
     45 H7          6.0024   -2.2918   -2.6299 H         1 <0>         0.0421
     46 H8          5.6667    0.0764   -2.1065 H         1 <0>         0.0362
     47 H9          4.8088   -0.3123   -3.5935 H         1 <0>         0.0439
     48 H10         5.0101   -3.3880   -0.6088 H         1 <0>         0.0350
     49 H11         5.7927   -1.8578   -0.2293 H         1 <0>         0.0428
     50 H12         3.4361    1.0988   -2.0620 H         1 <0>         0.0663
     51 H13         2.6716   -0.4470   -2.4229 H         1 <0>         0.0466
     52 H14         2.7962   -2.3605   -0.5667 H         1 <0>         0.0493
     53 H15         3.6378   -1.9924    0.9369 H         1 <0>         0.0520
     54 H16         4.7529    3.1603   -4.8133 H         1 <0>         0.0915
     55 H17         5.5468    1.8277   -3.9440 H         1 <0>         0.0601
     56 H18         7.8817    7.5503   -5.4050 H         1 <0>         0.0688
     57 H19         6.1410    7.6997   -5.2894 H         1 <0>         0.0630
     58 H20         7.7153    2.6878   -4.4279 H         1 <0>         0.0807
     59 H21         6.8766    3.1741   -5.9024 H         1 <0>         0.0380
     60 H22         5.7721    5.5353   -5.7700 H         1 <0>         0.0484
     61 H23         7.4480    5.5158   -6.3149 H         1 <0>         0.0697
     62 H24         4.5229    4.0496   -2.6159 H         1 <0>         0.0843
     63 H25         2.4111   -0.0062   -0.0327 H         1 <0>         0.0831
     64 H26         6.8173    8.7391   -1.8738 H         1 <0>         0.0704
     65 H27         5.6691    8.8325   -3.1938 H         1 <0>         0.0718
     66 H28         7.6494    5.4516   -0.0948 H         1 <0>         0.0606
     67 H29         8.8216    4.2418    0.4157 H         1 <0>         0.0458
     68 H30         8.0356    6.7709    1.9287 H         1 <0>         0.0375
     69 H31         9.1825    5.5824    2.5383 H         1 <0>         0.0392
     70 H32         6.2171    4.9575    1.8728 H         1 <0>         0.0606
     71 H33         7.3929    3.7874    2.4660 H         1 <0>         0.0579
     72 H34         9.5108    7.2416   -0.0285 H         1 <0>         0.0571
     73 H35        10.6706    6.0303    0.5375 H         1 <0>         0.0503
     74 H36         7.0421    2.3587    0.4881 H         1 <0>         0.0993
     75 H37         9.0003    6.2852   -3.4348 H         1 <0>         0.3700
     76 H38         8.7621    7.3483   -2.0685 H         1 <0>         0.3660
     77 H39        11.2163    8.3531    1.3147 H         1 <0>         0.3465
     78 H40        10.4498    7.6340    2.7108 H         1 <0>         0.3446
     79 H41         5.2837    0.1150    0.5408 H         1 <0>         0.3148
     80 H42         5.0545    4.3100   -0.4888 H         1 <0>         0.3220
@<TRIPOS>BOND
     1    1    2 ar
     2    1    3 ar
     3    2    4 ar
     4    3    5 ar
     5    4    6 ar
     6    5    6 ar
     7    6   23 1
     8    7   22 1
     9    7   29 am
    10    7   35 2
    11    8    9 1
    12    8   28 1
    13    8   36 2
    14    9   33 am
    15    9   37 2
    16   10   20 1
    17   10   34 am
    18   10   38 2
    19   11   12 1
    20   11   13 1
    21   12   14 1
    22   13   15 1
    23   14   21 1
    24   15   21 1
    25   16   18 1
    26   16   20 1
    27   17   19 1
    28   17   22 1
    29   18   30 1
    30   19   30 1
    31   20   29 1
    32   21   33 1
    33   22   23 1
    34   22   31 1
    35   24   25 1
    36   24   26 1
    37   25   27 1
    38   26   28 1
    39   27   32 1
    40   28   34 1
    41   29   30 1
    42    1   39 1
    43    2   40 1
    44    3   41 1
    45    4   42 1
    46    5   43 1
    47   11   44 1
    48   11   45 1
    49   12   46 1
    50   12   47 1
    51   13   48 1
    52   13   49 1
    53   14   50 1
    54   14   51 1
    55   15   52 1
    56   15   53 1
    57   16   54 1
    58   16   55 1
    59   17   56 1
    60   17   57 1
    61   18   58 1
    62   18   59 1
    63   19   60 1
    64   19   61 1
    65   20   62 1
    66   21   63 1
    67   23   64 1
    68   23   65 1
    69   24   66 1
    70   24   67 1
    71   25   68 1
    72   25   69 1
    73   26   70 1
    74   26   71 1
    75   27   72 1
    76   27   73 1
    77   28   74 1
    78   31   75 1
    79   31   76 1
    80   32   77 1
    81   32   78 1
    82   33   79 1
    83   34   80 1
@<TRIPOS>MOLECULE
1a46_ligand_22
   80    83     0     0     0
SMALL
USER_CHARGES

mmff94s_NoEstat = 81.36
@<TRIPOS>ATOM
      1 C1          5.6982   13.0256   -2.9158 C.ar      1 <0>        -0.1300
      2 C2          6.1379   12.4463   -1.7256 C.ar      1 <0>        -0.1323
      3 C3          4.9080   12.2902   -3.7992 C.ar      1 <0>        -0.1309
      4 C4          5.7876   11.1315   -1.4188 C.ar      1 <0>        -0.1275
      5 C5          4.5577   10.9753   -3.4925 C.ar      1 <0>        -0.1272
      6 C6          4.9998   10.4046   -2.3043 C.ar      1 <0>        -0.0843
      7 C7          5.2783    6.5491   -2.1791 C.2       1 <0>         0.6709
      8 C8          5.2358    2.3798    1.5634 C.2       1 <0>         0.4867
      9 C9          4.0737    1.7586    0.8450 C.2       1 <0>         0.5883
     10 C10         6.5256    3.6321   -1.6689 C.2       1 <0>         0.6572
     11 C11         4.0644   -3.1378    0.1954 C.3       1 <0>        -0.0802
     12 C12         4.9349   -2.3079   -0.7445 C.3       1 <0>        -0.0765
     13 C13         3.3449   -2.2675    1.2224 C.3       1 <0>        -0.0774
     14 C14         4.1346   -1.1879   -1.4107 C.3       1 <0>        -0.0953
     15 C15         2.5480   -1.1477    0.5515 C.3       1 <0>        -0.0906
     16 C16         6.3772    3.6983   -4.1707 C.3       1 <0>        -0.0871
     17 C17         5.8129    8.1649   -4.0442 C.3       1 <0>        -0.0716
     18 C18         7.4333    4.7567   -4.4831 C.3       1 <0>         0.1333
     19 C19         6.3652    6.9275   -4.7727 C.3       1 <0>         0.1246
     20 C20         5.7868    4.1659   -2.8575 C.3       1 <0>         0.0606
     21 C21         3.4011   -0.2972   -0.3991 C.3       1 <0>         0.1012
     22 C22         5.6591    7.9981   -2.5141 C.3       1 <0>         0.1554
     23 C23         4.6229    8.9902   -1.9743 C.3       1 <0>        -0.0356
     24 C24         6.0158    5.3379    2.0114 C.3       1 <0>        -0.0795
     25 C25         6.7209    6.4716    2.7653 C.3       1 <0>        -0.1203
     26 C26         6.9719    4.2276    1.5544 C.3       1 <0>        -0.0920
     27 C27         5.7742    7.5909    3.1979 C.3       1 <0>         0.1502
     28 C28         6.2906    3.1130    0.7514 C.3       1 <0>         0.0224
     29 N1          6.0028    5.5999   -2.8834 N.am      1 <0>        -0.3553
     30 N2          6.9706    5.9918   -3.8269 N.3       1 <0>        -0.4320
     31 N3          6.9384    8.2454   -1.8330 N.3       1 <0>        -0.9031
     32 N4          6.5168    8.6391    3.8900 N.3       1 <0>        -0.9068
     33 N5          4.3625    0.5037    0.3619 N.am      1 <0>        -0.5526
     34 N6          5.7762    3.5917   -0.5046 N.am      1 <0>        -0.5576
     35 O1          4.4149    6.2702   -1.3473 O.2       1 <0>        -0.6710
     36 O2          5.3022    2.1819    2.7699 O.2       1 <0>        -0.4901
     37 O3          3.0463    2.4099    0.7491 O.2       1 <0>        -0.5902
     38 O4          7.6924    3.2783   -1.7917 O.2       1 <0>        -0.5833
     39 H1          5.9710   14.0494   -3.1547 H         1 <0>         0.1320
     40 H2          6.7531   13.0191   -1.0378 H         1 <0>         0.1324
     41 H3          4.5659   12.7413   -4.7260 H         1 <0>         0.1328
     42 H4          6.1348   10.6884   -0.4892 H         1 <0>         0.1324
     43 H5          3.9418   10.4100   -4.1868 H         1 <0>         0.1434
     44 H6          3.3227   -3.6924   -0.3927 H         1 <0>         0.0405
     45 H7          4.6827   -3.8816    0.7106 H         1 <0>         0.0421
     46 H8          5.7747   -1.8806   -0.1833 H         1 <0>         0.0362
     47 H9          5.3667   -2.9577   -1.5143 H         1 <0>         0.0439
     48 H10         2.6703   -2.8890    1.8223 H         1 <0>         0.0350
     49 H11         4.0784   -1.8371    1.9148 H         1 <0>         0.0428
     50 H12         4.8088   -0.5817   -2.0279 H         1 <0>         0.0663
     51 H13         3.3981   -1.6353   -2.0902 H         1 <0>         0.0466
     52 H14         1.7203   -1.5929   -0.0152 H         1 <0>         0.0493
     53 H15         2.0985   -0.5129    1.3247 H         1 <0>         0.0520
     54 H16         5.6043    3.7190   -4.9489 H         1 <0>         0.0915
     55 H17         6.7998    2.6898   -4.1286 H         1 <0>         0.0601
     56 H18         6.4556    9.0301   -4.2569 H         1 <0>         0.0688
     57 H19         4.8364    8.4048   -4.4864 H         1 <0>         0.0630
     58 H20         8.3862    4.4645   -4.0255 H         1 <0>         0.0807
     59 H21         7.6091    4.8610   -5.5594 H         1 <0>         0.0380
     60 H22         5.5493    6.4477   -5.3309 H         1 <0>         0.0484
     61 H23         7.1061    7.2537   -5.5124 H         1 <0>         0.0697
     62 H24         4.7253    3.9276   -2.7453 H         1 <0>         0.0843
     63 H25         2.7649    0.4200   -0.9282 H         1 <0>         0.0831
     64 H26         4.5381    8.8614   -0.8937 H         1 <0>         0.0704
     65 H27         3.6462    8.7482   -2.3975 H         1 <0>         0.0718
     66 H28         5.2579    4.9142    2.6804 H         1 <0>         0.0606
     67 H29         5.4809    5.7546    1.1500 H         1 <0>         0.0458
     68 H30         7.2000    6.0392    3.6534 H         1 <0>         0.0375
     69 H31         7.5258    6.8807    2.1417 H         1 <0>         0.0392
     70 H32         7.4599    3.7926    2.4354 H         1 <0>         0.0606
     71 H33         7.7645    4.6634    0.9347 H         1 <0>         0.0579
     72 H34         4.9986    7.1962    3.8630 H         1 <0>         0.0571
     73 H35         5.2784    8.0349    2.3297 H         1 <0>         0.0503
     74 H36         7.0421    2.3587    0.4881 H         1 <0>         0.0993
     75 H37         7.7703    7.9574   -2.2937 H         1 <0>         0.3700
     76 H38         6.9090    8.4964   -0.8720 H         1 <0>         0.3660
     77 H39         5.9996    9.3711    4.3277 H         1 <0>         0.3465
     78 H40         7.4997    8.7018    3.7315 H         1 <0>         0.3446
     79 H41         5.2837    0.1150    0.5408 H         1 <0>         0.3148
     80 H42         4.8120    3.9176   -0.5391 H         1 <0>         0.3220
@<TRIPOS>BOND
     1    1    2 ar
     2    1    3 ar
     3    2    4 ar
     4    3    5 ar
     5    4    6 ar
     6    5    6 ar
     7    6   23 1
     8    7   22 1
     9    7   29 am
    10    7   35 2
    11    8    9 1
    12    8   28 1
    13    8   36 2
    14    9   33 am
    15    9   37 2
    16   10   20 1
    17   10   34 am
    18   10   38 2
    19   11   12 1
    20   11   13 1
    21   12   14 1
    22   13   15 1
    23   14   21 1
    24   15   21 1
    25   16   18 1
    26   16   20 1
    27   17   19 1
    28   17   22 1
    29   18   30 1
    30   19   30 1
    31   20   29 1
    32   21   33 1
    33   22   23 1
    34   22   31 1
    35   24   25 1
    36   24   26 1
    37   25   27 1
    38   26   28 1
    39   27   32 1
    40   28   34 1
    41   29   30 1
    42    1   39 1
    43    2   40 1
    44    3   41 1
    45    4   42 1
    46    5   43 1
    47   11   44 1
    48   11   45 1
    49   12   46 1
    50   12   47 1
    51   13   48 1
    52   13   49 1
    53   14   50 1
    54   14   51 1
    55   15   52 1
    56   15   53 1
    57   16   54 1
    58   16   55 1
    59   17   56 1
    60   17   57 1
    61   18   58 1
    62   18   59 1
    63   19   60 1
    64   19   61 1
    65   20   62 1
    66   21   63 1
    67   23   64 1
    68   23   65 1
    69   24   66 1
    70   24   67 1
    71   25   68 1
    72   25   69 1
    73   26   70 1
    74   26   71 1
    75   27   72 1
    76   27   73 1
    77   28   74 1
    78   31   75 1
    79   31   76 1
    80   32   77 1
    81   32   78 1
    82   33   79 1
    83   34   80 1
@<TRIPOS>MOLECULE
1a46_ligand_23
   80    83     0     0     0
SMALL
USER_CHARGES

mmff94s_NoEstat = 81.39
@<TRIPOS>ATOM
      1 C1         -4.6917   -3.0051  -14.5357 C.ar      1 <0>        -0.1300
      2 C2         -3.4233   -2.4813  -14.7856 C.ar      1 <0>        -0.1323
      3 C3         -5.5209   -2.4030  -13.5893 C.ar      1 <0>        -0.1309
      4 C4         -2.9840   -1.3555  -14.0891 C.ar      1 <0>        -0.1275
      5 C5         -5.0816   -1.2772  -12.8927 C.ar      1 <0>        -0.1272
      6 C6         -3.8160   -0.7608  -13.1471 C.ar      1 <0>        -0.0843
      7 C7         -2.1349    1.2928  -10.3339 C.2       1 <0>         0.6709
      8 C8          2.7796    3.2097   -6.1637 C.2       1 <0>         0.4867
      9 C9          2.2829    2.0299   -5.3801 C.2       1 <0>         0.5883
     10 C10         0.1051    2.2921   -8.2580 C.2       1 <0>         0.6572
     11 C11        -0.0951    0.7326   -0.7029 C.3       1 <0>        -0.0802
     12 C12        -1.0596    1.0010   -1.8547 C.3       1 <0>        -0.0765
     13 C13         1.2544    0.2267   -1.2045 C.3       1 <0>        -0.0774
     14 C14        -0.4535    1.9500   -2.8873 C.3       1 <0>        -0.0953
     15 C15         1.8633    1.1742   -2.2367 C.3       1 <0>        -0.0906
     16 C16        -1.6127    1.3005   -6.7245 C.3       1 <0>        -0.0871
     17 C17        -3.5515   -0.7936  -10.2088 C.3       1 <0>        -0.0716
     18 C18        -1.4826   -0.1787   -7.0821 C.3       1 <0>         0.1333
     19 C19        -3.1872   -0.7856   -8.7142 C.3       1 <0>         0.1246
     20 C20        -1.3485    2.0056   -8.0379 C.3       1 <0>         0.0606
     21 C21         0.8958    1.4320   -3.3972 C.3       1 <0>         0.1012
     22 C22        -2.6206    0.0571  -11.1047 C.3       1 <0>         0.1554
     23 C23        -3.3435    0.4502  -12.3978 C.3       1 <0>        -0.0356
     24 C24         1.5857    6.0302   -6.5865 C.3       1 <0>        -0.0795
     25 C25         1.6811    7.5259   -6.9095 C.3       1 <0>        -0.1203
     26 C26         2.1570    5.1335   -7.6933 C.3       1 <0>        -0.0920
     27 C27         1.0885    8.4192   -5.8200 C.3       1 <0>         0.1502
     28 C28         2.0196    3.6328   -7.4097 C.3       1 <0>         0.0224
     29 N1         -1.7438    1.0253   -9.0311 N.am      1 <0>        -0.3553
     30 N2         -1.8314   -0.2790   -8.5099 N.3       1 <0>        -0.4320
     31 N3         -1.4094   -0.6969  -11.4599 N.3       1 <0>        -0.9031
     32 N4          1.1980    9.8225   -6.2046 N.3       1 <0>        -0.9068
     33 N5          1.4800    2.3978   -4.3257 N.am      1 <0>        -0.5526
     34 N6          0.6426    3.2153   -7.3763 N.am      1 <0>        -0.5576
     35 O1         -2.0889    2.4118  -10.8445 O.2       1 <0>        -0.6710
     36 O2          3.8302    3.7133   -5.7870 O.2       1 <0>        -0.4901
     37 O3          2.6437    0.9181   -5.7301 O.2       1 <0>        -0.5902
     38 O4          0.7038    1.7190   -9.1607 O.2       1 <0>        -0.5833
     39 H1         -5.0337   -3.8817  -15.0780 H         1 <0>         0.1320
     40 H2         -2.7778   -2.9502  -15.5226 H         1 <0>         0.1324
     41 H3         -6.5084   -2.8111  -13.3947 H         1 <0>         0.1328
     42 H4         -1.9943   -0.9544  -14.2904 H         1 <0>         0.1324
     43 H5         -5.7344   -0.8149  -12.1571 H         1 <0>         0.1434
     44 H6          0.0525    1.6559   -0.1288 H         1 <0>         0.0405
     45 H7         -0.5335   -0.0027   -0.0187 H         1 <0>         0.0421
     46 H8         -1.3211    0.0528   -2.3405 H         1 <0>         0.0362
     47 H9         -1.9903    1.4276   -1.4643 H         1 <0>         0.0439
     48 H10         1.9424    0.1112   -0.3593 H         1 <0>         0.0350
     49 H11         1.1281   -0.7669   -1.6521 H         1 <0>         0.0428
     50 H12        -1.1492    2.0737   -3.7259 H         1 <0>         0.0663
     51 H13        -0.3282    2.9445   -2.4392 H         1 <0>         0.0466
     52 H14         2.1264    2.1227   -1.7504 H         1 <0>         0.0493
     53 H15         2.8004    0.7499   -2.6170 H         1 <0>         0.0520
     54 H16        -2.6402    1.5041   -6.3986 H         1 <0>         0.0915
     55 H17        -0.9296    1.5953   -5.9220 H         1 <0>         0.0601
     56 H18        -3.5677   -1.8293  -10.5746 H         1 <0>         0.0688
     57 H19        -4.5835   -0.4292  -10.3032 H         1 <0>         0.0630
     58 H20        -0.4377   -0.4900   -6.9643 H         1 <0>         0.0807
     59 H21        -2.0868   -0.8173   -6.4283 H         1 <0>         0.0380
     60 H22        -3.9204   -0.1736   -8.1708 H         1 <0>         0.0484
     61 H23        -3.2749   -1.8064   -8.3232 H         1 <0>         0.0697
     62 H24        -1.9101    2.9367   -8.1555 H         1 <0>         0.0843
     63 H25         0.7468    0.5083   -3.9681 H         1 <0>         0.0831
     64 H26        -2.6659    1.0404  -13.0174 H         1 <0>         0.0704
     65 H27        -4.1870    1.0971  -12.1499 H         1 <0>         0.0718
     66 H28         2.1358    5.8550   -5.6547 H         1 <0>         0.0606
     67 H29         0.5392    5.7688   -6.3906 H         1 <0>         0.0458
     68 H30         2.7419    7.7748   -7.0444 H         1 <0>         0.0375
     69 H31         1.1870    7.7255   -7.8687 H         1 <0>         0.0392
     70 H32         3.2164    5.3787   -7.8393 H         1 <0>         0.0606
     71 H33         1.6466    5.3535   -8.6384 H         1 <0>         0.0579
     72 H34         1.6137    8.2608   -4.8719 H         1 <0>         0.0571
     73 H35         0.0315    8.1861   -5.6617 H         1 <0>         0.0503
     74 H36         2.4714    3.0747   -8.2388 H         1 <0>         0.0993
     75 H37        -1.0328   -1.3138  -10.7781 H         1 <0>         0.3700
     76 H38        -0.9095   -0.4127  -12.2703 H         1 <0>         0.3660
     77 H39         0.9557   10.5154   -5.5293 H         1 <0>         0.3465
     78 H40         1.3102   10.0373   -7.1723 H         1 <0>         0.3446
     79 H41         1.2844    3.3846   -4.1861 H         1 <0>         0.3148
     80 H42         0.0323    3.6193   -6.6682 H         1 <0>         0.3220
@<TRIPOS>BOND
     1    1    2 ar
     2    1    3 ar
     3    2    4 ar
     4    3    5 ar
     5    4    6 ar
     6    5    6 ar
     7    6   23 1
     8    7   22 1
     9    7   29 am
    10    7   35 2
    11    8    9 1
    12    8   28 1
    13    8   36 2
    14    9   33 am
    15    9   37 2
    16   10   20 1
    17   10   34 am
    18   10   38 2
    19   11   12 1
    20   11   13 1
    21   12   14 1
    22   13   15 1
    23   14   21 1
    24   15   21 1
    25   16   18 1
    26   16   20 1
    27   17   19 1
    28   17   22 1
    29   18   30 1
    30   19   30 1
    31   20   29 1
    32   21   33 1
    33   22   23 1
    34   22   31 1
    35   24   25 1
    36   24   26 1
    37   25   27 1
    38   26   28 1
    39   27   32 1
    40   28   34 1
    41   29   30 1
    42    1   39 1
    43    2   40 1
    44    3   41 1
    45    4   42 1
    46    5   43 1
    47   11   44 1
    48   11   45 1
    49   12   46 1
    50   12   47 1
    51   13   48 1
    52   13   49 1
    53   14   50 1
    54   14   51 1
    55   15   52 1
    56   15   53 1
    57   16   54 1
    58   16   55 1
    59   17   56 1
    60   17   57 1
    61   18   58 1
    62   18   59 1
    63   19   60 1
    64   19   61 1
    65   20   62 1
    66   21   63 1
    67   23   64 1
    68   23   65 1
    69   24   66 1
    70   24   67 1
    71   25   68 1
    72   25   69 1
    73   26   70 1
    74   26   71 1
    75   27   72 1
    76   27   73 1
    77   28   74 1
    78   31   75 1
    79   31   76 1
    80   32   77 1
    81   32   78 1
    82   33   79 1
    83   34   80 1
@<TRIPOS>MOLECULE
1a46_ligand_24
   80    83     0     0     0
SMALL
USER_CHARGES

mmff94s_NoEstat = 81.44
@<TRIPOS>ATOM
      1 C1         11.1411    8.8652   -7.4997 C.ar      1 <0>        -0.1300
      2 C2         11.6114    8.4390   -6.2577 C.ar      1 <0>        -0.1323
      3 C3          9.7702    8.8864   -7.7566 C.ar      1 <0>        -0.1309
      4 C4         10.7109    8.0339   -5.2725 C.ar      1 <0>        -0.1275
      5 C5          8.8697    8.4813   -6.7714 C.ar      1 <0>        -0.1272
      6 C6          9.3459    8.0577   -5.5358 C.ar      1 <0>        -0.0843
      7 C7          7.0979    5.6684   -3.4876 C.2       1 <0>         0.6709
      8 C8          5.2358    2.3798    1.5634 C.2       1 <0>         0.4867
      9 C9          4.0737    1.7586    0.8450 C.2       1 <0>         0.5883
     10 C10         6.2126    3.1256   -1.7338 C.2       1 <0>         0.6572
     11 C11         4.0644   -3.1378    0.1954 C.3       1 <0>        -0.0802
     12 C12         4.9349   -2.3079   -0.7445 C.3       1 <0>        -0.0765
     13 C13         3.3449   -2.2675    1.2224 C.3       1 <0>        -0.0774
     14 C14         4.1346   -1.1879   -1.4107 C.3       1 <0>        -0.0953
     15 C15         2.5480   -1.1477    0.5515 C.3       1 <0>        -0.0906
     16 C16         4.9436    2.7496   -3.8630 C.3       1 <0>        -0.0871
     17 C17         7.5380    5.7673   -5.9719 C.3       1 <0>        -0.0716
     18 C18         6.0937    2.4470   -4.8215 C.3       1 <0>         0.1333
     19 C19         6.7139    4.4696   -6.0305 C.3       1 <0>         0.1246
     20 C20         5.5372    3.7637   -2.9085 C.3       1 <0>         0.0606
     21 C21         3.4011   -0.2972   -0.3991 C.3       1 <0>         0.1012
     22 C22         8.0887    6.1196   -4.5700 C.3       1 <0>         0.1554
     23 C23         8.3772    7.6220   -4.4760 C.3       1 <0>        -0.0356
     24 C24         8.0800    4.9598    0.7851 C.3       1 <0>        -0.0795
     25 C25         8.7880    6.0338    1.6192 C.3       1 <0>        -0.1203
     26 C26         6.9719    4.2276    1.5544 C.3       1 <0>        -0.0920
     27 C27         9.9095    6.7454    0.8629 C.3       1 <0>         0.1502
     28 C28         6.2906    3.1130    0.7514 C.3       1 <0>         0.0224
     29 N1          6.5723    4.4030   -3.6984 N.am      1 <0>        -0.3553
     30 N2          6.9338    3.6570   -4.8356 N.3       1 <0>        -0.4320
     31 N3          9.3363    5.3890   -4.3028 N.3       1 <0>        -0.9031
     32 N4         10.5470    7.7366    1.7233 N.3       1 <0>        -0.9068
     33 N5          4.3625    0.5037    0.3619 N.am      1 <0>        -0.5526
     34 N6          5.7762    3.5917   -0.5046 N.am      1 <0>        -0.5576
     35 O1          6.8158    6.3720   -2.5178 O.2       1 <0>        -0.6710
     36 O2          5.3022    2.1819    2.7699 O.2       1 <0>        -0.4901
     37 O3          3.0463    2.4099    0.7491 O.2       1 <0>        -0.5902
     38 O4          7.0689    2.2691   -1.9210 O.2       1 <0>        -0.5833
     39 H1         11.8422    9.1805   -8.2669 H         1 <0>         0.1320
     40 H2         12.6788    8.4225   -6.0578 H         1 <0>         0.1324
     41 H3          9.4041    9.2181   -8.7239 H         1 <0>         0.1328
     42 H4         11.0865    7.7034   -4.3077 H         1 <0>         0.1324
     43 H5          7.8034    8.5011   -6.9806 H         1 <0>         0.1434
     44 H6          3.3227   -3.6924   -0.3927 H         1 <0>         0.0405
     45 H7          4.6827   -3.8816    0.7106 H         1 <0>         0.0421
     46 H8          5.7747   -1.8806   -0.1833 H         1 <0>         0.0362
     47 H9          5.3667   -2.9577   -1.5143 H         1 <0>         0.0439
     48 H10         2.6703   -2.8890    1.8223 H         1 <0>         0.0350
     49 H11         4.0784   -1.8371    1.9148 H         1 <0>         0.0428
     50 H12         4.8088   -0.5817   -2.0279 H         1 <0>         0.0663
     51 H13         3.3981   -1.6353   -2.0902 H         1 <0>         0.0466
     52 H14         1.7203   -1.5929   -0.0152 H         1 <0>         0.0493
     53 H15         2.0985   -0.5129    1.3247 H         1 <0>         0.0520
     54 H16         4.1195    3.2100   -4.4221 H         1 <0>         0.0915
     55 H17         4.5667    1.8489   -3.3690 H         1 <0>         0.0601
     56 H18         8.3688    5.7042   -6.6879 H         1 <0>         0.0688
     57 H19         6.8987    6.5856   -6.3304 H         1 <0>         0.0630
     58 H20         6.6930    1.6211   -4.4197 H         1 <0>         0.0807
     59 H21         5.7379    2.1381   -5.8106 H         1 <0>         0.0380
     60 H22         5.6510    4.7258   -6.1401 H         1 <0>         0.0484
     61 H23         6.9989    3.9097   -6.9293 H         1 <0>         0.0697
     62 H24         4.8121    4.4950   -2.5402 H         1 <0>         0.0843
     63 H25         2.7649    0.4200   -0.9282 H         1 <0>         0.0831
     64 H26         8.7732    7.8456   -3.4837 H         1 <0>         0.0704
     65 H27         7.4380    8.1701   -4.5707 H         1 <0>         0.0718
     66 H28         7.6494    5.4516   -0.0948 H         1 <0>         0.0606
     67 H29         8.8216    4.2418    0.4157 H         1 <0>         0.0458
     68 H30         8.0356    6.7709    1.9287 H         1 <0>         0.0375
     69 H31         9.1825    5.5824    2.5383 H         1 <0>         0.0392
     70 H32         6.2171    4.9575    1.8728 H         1 <0>         0.0606
     71 H33         7.3929    3.7874    2.4660 H         1 <0>         0.0579
     72 H34         9.5108    7.2416   -0.0285 H         1 <0>         0.0571
     73 H35        10.6706    6.0303    0.5375 H         1 <0>         0.0503
     74 H36         7.0421    2.3587    0.4881 H         1 <0>         0.0993
     75 H37         9.4175    4.4664   -4.6628 H         1 <0>         0.3700
     76 H38         9.9501    5.7594   -3.6148 H         1 <0>         0.3660
     77 H39        11.2163    8.3531    1.3147 H         1 <0>         0.3465
     78 H40        10.4498    7.6340    2.7108 H         1 <0>         0.3446
     79 H41         5.2837    0.1150    0.5408 H         1 <0>         0.3148
     80 H42         5.0545    4.3100   -0.4888 H         1 <0>         0.3220
@<TRIPOS>BOND
     1    1    2 ar
     2    1    3 ar
     3    2    4 ar
     4    3    5 ar
     5    4    6 ar
     6    5    6 ar
     7    6   23 1
     8    7   22 1
     9    7   29 am
    10    7   35 2
    11    8    9 1
    12    8   28 1
    13    8   36 2
    14    9   33 am
    15    9   37 2
    16   10   20 1
    17   10   34 am
    18   10   38 2
    19   11   12 1
    20   11   13 1
    21   12   14 1
    22   13   15 1
    23   14   21 1
    24   15   21 1
    25   16   18 1
    26   16   20 1
    27   17   19 1
    28   17   22 1
    29   18   30 1
    30   19   30 1
    31   20   29 1
    32   21   33 1
    33   22   23 1
    34   22   31 1
    35   24   25 1
    36   24   26 1
    37   25   27 1
    38   26   28 1
    39   27   32 1
    40   28   34 1
    41   29   30 1
    42    1   39 1
    43    2   40 1
    44    3   41 1
    45    4   42 1
    46    5   43 1
    47   11   44 1
    48   11   45 1
    49   12   46 1
    50   12   47 1
    51   13   48 1
    52   13   49 1
    53   14   50 1
    54   14   51 1
    55   15   52 1
    56   15   53 1
    57   16   54 1
    58   16   55 1
    59   17   56 1
    60   17   57 1
    61   18   58 1
    62   18   59 1
    63   19   60 1
    64   19   61 1
    65   20   62 1
    66   21   63 1
    67   23   64 1
    68   23   65 1
    69   24   66 1
    70   24   67 1
    71   25   68 1
    72   25   69 1
    73   26   70 1
    74   26   71 1
    75   27   72 1
    76   27   73 1
    77   28   74 1
    78   31   75 1
    79   31   76 1
    80   32   77 1
    81   32   78 1
    82   33   79 1
    83   34   80 1
@<TRIPOS>MOLECULE
1a46_ligand_25
   80    83     0     0     0
SMALL
USER_CHARGES

mmff94s_NoEstat = 81.51
@<TRIPOS>ATOM
      1 C1          5.9504   -1.3642  -10.1903 C.ar      1 <0>        -0.1300
      2 C2          6.6765   -1.8241   -9.0918 C.ar      1 <0>        -0.1323
      3 C3          5.5463   -0.0305  -10.2504 C.ar      1 <0>        -0.1309
      4 C4          6.9984   -0.9504   -8.0532 C.ar      1 <0>        -0.1275
      5 C5          5.8681    0.8432   -9.2119 C.ar      1 <0>        -0.1272
      6 C6          6.5921    0.3776   -8.1201 C.ar      1 <0>        -0.0843
      7 C7          6.1974    2.2868   -4.7798 C.2       1 <0>         0.6709
      8 C8          5.2358    2.3798    1.5634 C.2       1 <0>         0.4867
      9 C9          4.0737    1.7586    0.8450 C.2       1 <0>         0.5883
     10 C10         5.7098    2.8119   -1.6475 C.2       1 <0>         0.6572
     11 C11         4.0644   -3.1378    0.1954 C.3       1 <0>        -0.0802
     12 C12         4.9349   -2.3079   -0.7445 C.3       1 <0>        -0.0765
     13 C13         3.3449   -2.2675    1.2224 C.3       1 <0>        -0.0774
     14 C14         4.1346   -1.1879   -1.4107 C.3       1 <0>        -0.0953
     15 C15         2.5480   -1.1477    0.5515 C.3       1 <0>        -0.0906
     16 C16         3.6723    3.8570   -2.6681 C.3       1 <0>        -0.0871
     17 C17         4.4858    1.7161   -6.5463 C.3       1 <0>        -0.0716
     18 C18         2.9535    2.6133   -3.1875 C.3       1 <0>         0.1333
     19 C19         3.4659    2.2898   -5.5476 C.3       1 <0>         0.1246
     20 C20         5.1372    3.5153   -2.8394 C.3       1 <0>         0.0606
     21 C21         3.4011   -0.2972   -0.3991 C.3       1 <0>         0.1012
     22 C22         5.8481    1.3265   -5.9256 C.3       1 <0>         0.1554
     23 C23         6.9383    1.3175   -7.0029 C.3       1 <0>        -0.0356
     24 C24         6.0158    5.3379    2.0114 C.3       1 <0>        -0.0795
     25 C25         6.7209    6.4716    2.7653 C.3       1 <0>        -0.1203
     26 C26         6.9719    4.2276    1.5544 C.3       1 <0>        -0.0920
     27 C27         5.7742    7.5909    3.1979 C.3       1 <0>         0.1502
     28 C28         6.2906    3.1130    0.7514 C.3       1 <0>         0.0224
     29 N1          5.1345    2.5635   -3.9339 N.am      1 <0>        -0.3553
     30 N2          3.8653    2.0037   -4.1710 N.3       1 <0>        -0.4320
     31 N3          5.7803   -0.0123   -5.3216 N.3       1 <0>        -0.9031
     32 N4          6.5168    8.6391    3.8900 N.3       1 <0>        -0.9068
     33 N5          4.3625    0.5037    0.3619 N.am      1 <0>        -0.5526
     34 N6          5.7762    3.5917   -0.5046 N.am      1 <0>        -0.5576
     35 O1          7.3278    2.7504   -4.6301 O.2       1 <0>        -0.6710
     36 O2          5.3022    2.1819    2.7699 O.2       1 <0>        -0.4901
     37 O3          3.0463    2.4099    0.7491 O.2       1 <0>        -0.5902
     38 O4          6.0670    1.6440   -1.7490 O.2       1 <0>        -0.5833
     39 H1          5.6997   -2.0446  -10.9989 H         1 <0>         0.1320
     40 H2          6.9911   -2.8626   -9.0451 H         1 <0>         0.1324
     41 H3          4.9808    0.3274  -11.1059 H         1 <0>         0.1328
     42 H4          7.5644   -1.3176   -7.2012 H         1 <0>         0.1324
     43 H5          5.5489    1.8806   -9.2673 H         1 <0>         0.1434
     44 H6          3.3227   -3.6924   -0.3927 H         1 <0>         0.0405
     45 H7          4.6827   -3.8816    0.7106 H         1 <0>         0.0421
     46 H8          5.7747   -1.8806   -0.1833 H         1 <0>         0.0362
     47 H9          5.3667   -2.9577   -1.5143 H         1 <0>         0.0439
     48 H10         2.6703   -2.8890    1.8223 H         1 <0>         0.0350
     49 H11         4.0784   -1.8371    1.9148 H         1 <0>         0.0428
     50 H12         4.8088   -0.5817   -2.0279 H         1 <0>         0.0663
     51 H13         3.3981   -1.6353   -2.0902 H         1 <0>         0.0466
     52 H14         1.7203   -1.5929   -0.0152 H         1 <0>         0.0493
     53 H15         2.0985   -0.5129    1.3247 H         1 <0>         0.0520
     54 H16         3.4181    4.7133   -3.3051 H         1 <0>         0.0915
     55 H17         3.3944    4.0971   -1.6373 H         1 <0>         0.0601
     56 H18         4.0497    0.8441   -7.0524 H         1 <0>         0.0688
     57 H19         4.6431    2.4675   -7.3320 H         1 <0>         0.0630
     58 H20         2.8170    1.9026   -2.3635 H         1 <0>         0.0807
     59 H21         1.9588    2.8453   -3.5837 H         1 <0>         0.0380
     60 H22         3.3744    3.3723   -5.7123 H         1 <0>         0.0484
     61 H23         2.4818    1.8533   -5.7569 H         1 <0>         0.0697
     62 H24         5.7646    4.3810   -3.0694 H         1 <0>         0.0843
     63 H25         2.7649    0.4200   -0.9282 H         1 <0>         0.0831
     64 H26         7.8868    1.0311   -6.5450 H         1 <0>         0.0704
     65 H27         7.0672    2.3317   -7.3854 H         1 <0>         0.0718
     66 H28         5.2579    4.9142    2.6804 H         1 <0>         0.0606
     67 H29         5.4809    5.7546    1.1500 H         1 <0>         0.0458
     68 H30         7.2000    6.0392    3.6534 H         1 <0>         0.0375
     69 H31         7.5258    6.8807    2.1417 H         1 <0>         0.0392
     70 H32         7.4599    3.7926    2.4354 H         1 <0>         0.0606
     71 H33         7.7645    4.6634    0.9347 H         1 <0>         0.0579
     72 H34         4.9986    7.1962    3.8630 H         1 <0>         0.0571
     73 H35         5.2784    8.0349    2.3297 H         1 <0>         0.0503
     74 H36         7.0421    2.3587    0.4881 H         1 <0>         0.0993
     75 H37         4.9287   -0.2795   -4.8849 H         1 <0>         0.3700
     76 H38         6.6336   -0.5056   -5.1950 H         1 <0>         0.3660
     77 H39         5.9996    9.3711    4.3277 H         1 <0>         0.3465
     78 H40         7.4997    8.7018    3.7315 H         1 <0>         0.3446
     79 H41         5.2837    0.1150    0.5408 H         1 <0>         0.3148
     80 H42         5.4441    4.5531   -0.5557 H         1 <0>         0.3220
@<TRIPOS>BOND
     1    1    2 ar
     2    1    3 ar
     3    2    4 ar
     4    3    5 ar
     5    4    6 ar
     6    5    6 ar
     7    6   23 1
     8    7   22 1
     9    7   29 am
    10    7   35 2
    11    8    9 1
    12    8   28 1
    13    8   36 2
    14    9   33 am
    15    9   37 2
    16   10   20 1
    17   10   34 am
    18   10   38 2
    19   11   12 1
    20   11   13 1
    21   12   14 1
    22   13   15 1
    23   14   21 1
    24   15   21 1
    25   16   18 1
    26   16   20 1
    27   17   19 1
    28   17   22 1
    29   18   30 1
    30   19   30 1
    31   20   29 1
    32   21   33 1
    33   22   23 1
    34   22   31 1
    35   24   25 1
    36   24   26 1
    37   25   27 1
    38   26   28 1
    39   27   32 1
    40   28   34 1
    41   29   30 1
    42    1   39 1
    43    2   40 1
    44    3   41 1
    45    4   42 1
    46    5   43 1
    47   11   44 1
    48   11   45 1
    49   12   46 1
    50   12   47 1
    51   13   48 1
    52   13   49 1
    53   14   50 1
    54   14   51 1
    55   15   52 1
    56   15   53 1
    57   16   54 1
    58   16   55 1
    59   17   56 1
    60   17   57 1
    61   18   58 1
    62   18   59 1
    63   19   60 1
    64   19   61 1
    65   20   62 1
    66   21   63 1
    67   23   64 1
    68   23   65 1
    69   24   66 1
    70   24   67 1
    71   25   68 1
    72   25   69 1
    73   26   70 1
    74   26   71 1
    75   27   72 1
    76   27   73 1
    77   28   74 1
    78   31   75 1
    79   31   76 1
    80   32   77 1
    81   32   78 1
    82   33   79 1
    83   34   80 1
@<TRIPOS>MOLECULE
1a46_ligand_26
   80    83     0     0     0
SMALL
USER_CHARGES

mmff94s_NoEstat = 81.51
@<TRIPOS>ATOM
      1 C1         -7.1814    8.1831  -11.8066 C.ar      1 <0>        -0.1300
      2 C2         -5.8511    8.6018  -11.7877 C.ar      1 <0>        -0.1323
      3 C3         -7.6137    7.1932  -10.9240 C.ar      1 <0>        -0.1309
      4 C4         -4.9529    8.0306  -10.8863 C.ar      1 <0>        -0.1275
      5 C5         -6.7155    6.6220  -10.0225 C.ar      1 <0>        -0.1272
      6 C6         -5.3910    7.0444  -10.0096 C.ar      1 <0>        -0.0843
      7 C7         -2.7477    4.5672   -8.6551 C.2       1 <0>         0.6709
      8 C8          2.7796    3.2097   -6.1637 C.2       1 <0>         0.4867
      9 C9          2.2829    2.0299   -5.3801 C.2       1 <0>         0.5883
     10 C10        -0.0591    2.8141   -8.5012 C.2       1 <0>         0.6572
     11 C11        -1.2704    0.6207   -1.5588 C.3       1 <0>        -0.0802
     12 C12         0.0744    1.1096   -1.0285 C.3       1 <0>        -0.0765
     13 C13        -1.1365   -0.0014   -2.9459 C.3       1 <0>        -0.0774
     14 C14         0.7531    2.0650   -2.0087 C.3       1 <0>        -0.0953
     15 C15        -0.4598    0.9531   -3.9283 C.3       1 <0>        -0.0906
     16 C16        -1.8142    1.0434   -8.7649 C.3       1 <0>        -0.0871
     17 C17        -4.7936    4.1559  -10.0766 C.3       1 <0>        -0.0716
     18 C18        -2.2713    1.3172  -10.1964 C.3       1 <0>         0.1333
     19 C19        -4.2684    2.7130  -10.1718 C.3       1 <0>         0.1246
     20 C20        -1.4789    2.4202   -8.2321 C.3       1 <0>         0.0606
     21 C21         0.8958    1.4320   -3.3972 C.3       1 <0>         0.1012
     22 C22        -3.7376    5.2000   -9.6434 C.3       1 <0>         0.1554
     23 C23        -4.4248    6.4299   -9.0399 C.3       1 <0>        -0.0356
     24 C24         1.5857    6.0302   -6.5865 C.3       1 <0>        -0.0795
     25 C25         1.6811    7.5259   -6.9095 C.3       1 <0>        -0.1203
     26 C26         2.1570    5.1335   -7.6933 C.3       1 <0>        -0.0920
     27 C27         1.0885    8.4192   -5.8200 C.3       1 <0>         0.1502
     28 C28         2.0196    3.6328   -7.4097 C.3       1 <0>         0.0224
     29 N1         -2.3208    3.2998   -9.0203 N.am      1 <0>        -0.3553
     30 N2         -2.8071    2.6894  -10.1914 N.3       1 <0>        -0.4320
     31 N3         -2.9336    5.6348  -10.7950 N.3       1 <0>        -0.9031
     32 N4          1.1980    9.8225   -6.2046 N.3       1 <0>        -0.9068
     33 N5          1.4800    2.3978   -4.3257 N.am      1 <0>        -0.5526
     34 N6          0.6426    3.2153   -7.3763 N.am      1 <0>        -0.5576
     35 O1         -2.3654    5.1506   -7.6410 O.2       1 <0>        -0.6710
     36 O2          3.8302    3.7133   -5.7870 O.2       1 <0>        -0.4901
     37 O3          2.6437    0.9181   -5.7301 O.2       1 <0>        -0.5902
     38 O4          0.3766    2.7593   -9.6452 O.2       1 <0>        -0.5833
     39 H1         -7.8808    8.6278  -12.5086 H         1 <0>         0.1320
     40 H2         -5.5146    9.3725  -12.4750 H         1 <0>         0.1324
     41 H3         -8.6496    6.8672  -10.9389 H         1 <0>         0.1328
     42 H4         -3.9182    8.3631  -10.8788 H         1 <0>         0.1324
     43 H5         -7.0613    5.8514   -9.3387 H         1 <0>         0.1434
     44 H6         -1.6957   -0.1132   -0.8650 H         1 <0>         0.0405
     45 H7         -1.9720    1.4629   -1.6036 H         1 <0>         0.0421
     46 H8         -0.0697    1.6114   -0.0650 H         1 <0>         0.0362
     47 H9          0.7299    0.2492   -0.8461 H         1 <0>         0.0439
     48 H10        -0.5524   -0.9273   -2.8766 H         1 <0>         0.0350
     49 H11        -2.1278   -0.2766   -3.3234 H         1 <0>         0.0428
     50 H12         0.1691    2.9923   -2.0772 H         1 <0>         0.0663
     51 H13         1.7400    2.3481   -1.6229 H         1 <0>         0.0466
     52 H14        -0.3275    0.4526   -4.8952 H         1 <0>         0.0493
     53 H15        -1.1165    1.8138   -4.1113 H         1 <0>         0.0520
     54 H16        -2.6505    0.6220   -8.1933 H         1 <0>         0.0915
     55 H17        -0.9769    0.3401   -8.7238 H         1 <0>         0.0601
     56 H18        -5.2271    4.4505  -11.0420 H         1 <0>         0.0688
     57 H19        -5.6282    4.1614   -9.3624 H         1 <0>         0.0630
     58 H20        -1.4027    1.2932  -10.8654 H         1 <0>         0.0807
     59 H21        -2.9789    0.5622  -10.5565 H         1 <0>         0.0380
     60 H22        -4.6584    2.1340   -9.3232 H         1 <0>         0.0484
     61 H23        -4.6688    2.2501  -11.0817 H         1 <0>         0.0697
     62 H24        -1.6773    2.5360   -7.1628 H         1 <0>         0.0843
     63 H25         1.5948    0.5889   -3.3505 H         1 <0>         0.0831
     64 H26        -3.6625    7.1558   -8.7509 H         1 <0>         0.0704
     65 H27        -4.9408    6.1344   -8.1245 H         1 <0>         0.0718
     66 H28         2.1358    5.8550   -5.6547 H         1 <0>         0.0606
     67 H29         0.5392    5.7688   -6.3906 H         1 <0>         0.0458
     68 H30         2.7419    7.7748   -7.0444 H         1 <0>         0.0375
     69 H31         1.1870    7.7255   -7.8687 H         1 <0>         0.0392
     70 H32         3.2164    5.3787   -7.8393 H         1 <0>         0.0606
     71 H33         1.6466    5.3535   -8.6384 H         1 <0>         0.0579
     72 H34         1.6137    8.2608   -4.8719 H         1 <0>         0.0571
     73 H35         0.0315    8.1861   -5.6617 H         1 <0>         0.0503
     74 H36         2.4714    3.0747   -8.2388 H         1 <0>         0.0993
     75 H37        -2.7229    4.9595  -11.4927 H         1 <0>         0.3700
     76 H38        -2.4695    6.5111  -10.7297 H         1 <0>         0.3660
     77 H39         0.9557   10.5154   -5.5293 H         1 <0>         0.3465
     78 H40         1.3102   10.0373   -7.1723 H         1 <0>         0.3446
     79 H41         1.2844    3.3846   -4.1861 H         1 <0>         0.3148
     80 H42         0.1596    3.2148   -6.4798 H         1 <0>         0.3220
@<TRIPOS>BOND
     1    1    2 ar
     2    1    3 ar
     3    2    4 ar
     4    3    5 ar
     5    4    6 ar
     6    5    6 ar
     7    6   23 1
     8    7   22 1
     9    7   29 am
    10    7   35 2
    11    8    9 1
    12    8   28 1
    13    8   36 2
    14    9   33 am
    15    9   37 2
    16   10   20 1
    17   10   34 am
    18   10   38 2
    19   11   12 1
    20   11   13 1
    21   12   14 1
    22   13   15 1
    23   14   21 1
    24   15   21 1
    25   16   18 1
    26   16   20 1
    27   17   19 1
    28   17   22 1
    29   18   30 1
    30   19   30 1
    31   20   29 1
    32   21   33 1
    33   22   23 1
    34   22   31 1
    35   24   25 1
    36   24   26 1
    37   25   27 1
    38   26   28 1
    39   27   32 1
    40   28   34 1
    41   29   30 1
    42    1   39 1
    43    2   40 1
    44    3   41 1
    45    4   42 1
    46    5   43 1
    47   11   44 1
    48   11   45 1
    49   12   46 1
    50   12   47 1
    51   13   48 1
    52   13   49 1
    53   14   50 1
    54   14   51 1
    55   15   52 1
    56   15   53 1
    57   16   54 1
    58   16   55 1
    59   17   56 1
    60   17   57 1
    61   18   58 1
    62   18   59 1
    63   19   60 1
    64   19   61 1
    65   20   62 1
    66   21   63 1
    67   23   64 1
    68   23   65 1
    69   24   66 1
    70   24   67 1
    71   25   68 1
    72   25   69 1
    73   26   70 1
    74   26   71 1
    75   27   72 1
    76   27   73 1
    77   28   74 1
    78   31   75 1
    79   31   76 1
    80   32   77 1
    81   32   78 1
    82   33   79 1
    83   34   80 1
@<TRIPOS>MOLECULE
1a46_ligand_27
   80    83     0     0     0
SMALL
USER_CHARGES

mmff94s_NoEstat = 81.53
@<TRIPOS>ATOM
      1 C1         11.0121    9.2104   -7.9325 C.ar      1 <0>        -0.1300
      2 C2         11.5385    8.8832   -6.6829 C.ar      1 <0>        -0.1323
      3 C3          9.6345    9.1559   -8.1449 C.ar      1 <0>        -0.1309
      4 C4         10.6874    8.5015   -5.6458 C.ar      1 <0>        -0.1275
      5 C5          8.7834    8.7742   -7.1078 C.ar      1 <0>        -0.1272
      6 C6          9.3154    8.4495   -5.8650 C.ar      1 <0>        -0.0843
      7 C7          7.2411    6.0968   -3.6024 C.2       1 <0>         0.6709
      8 C8          5.2358    2.3798    1.5634 C.2       1 <0>         0.4867
      9 C9          4.0737    1.7586    0.8450 C.2       1 <0>         0.5883
     10 C10         6.5256    3.6321   -1.6689 C.2       1 <0>         0.6572
     11 C11         5.0270   -1.9782   -2.2411 C.3       1 <0>        -0.0802
     12 C12         4.8199   -0.4904   -2.5121 C.3       1 <0>        -0.0765
     13 C13         4.9383   -2.3038   -0.7525 C.3       1 <0>        -0.0774
     14 C14         3.5153    0.0174   -1.8967 C.3       1 <0>        -0.0953
     15 C15         3.6331   -1.7920   -0.1414 C.3       1 <0>        -0.0906
     16 C16         5.2113    3.0694   -3.7284 C.3       1 <0>        -0.0871
     17 C17         7.6012    6.0599   -6.1012 C.3       1 <0>        -0.0716
     18 C18         6.3446    2.7580   -4.7039 C.3       1 <0>         0.1333
     19 C19         6.8355    4.7264   -6.0536 C.3       1 <0>         0.1246
     20 C20         5.7868    4.1659   -2.8575 C.3       1 <0>         0.0606
     21 C21         3.4011   -0.2972   -0.3991 C.3       1 <0>         0.1012
     22 C22         8.1773    6.5224   -4.7422 C.3       1 <0>         0.1554
     23 C23         8.4000    8.0389   -4.7494 C.3       1 <0>        -0.0356
     24 C24         6.0158    5.3379    2.0114 C.3       1 <0>        -0.0795
     25 C25         6.7209    6.4716    2.7653 C.3       1 <0>        -0.1203
     26 C26         6.9719    4.2276    1.5544 C.3       1 <0>        -0.0920
     27 C27         5.7742    7.5909    3.1979 C.3       1 <0>         0.1502
     28 C28         6.2906    3.1130    0.7514 C.3       1 <0>         0.0224
     29 N1          6.7674    4.7991   -3.7183 N.am      1 <0>        -0.3553
     30 N2          7.1280    4.0001   -4.8193 N.3       1 <0>        -0.4320
     31 N3          9.4643    5.8648   -4.4722 N.3       1 <0>        -0.9031
     32 N4          4.7531    7.0666    4.0988 N.3       1 <0>        -0.9068
     33 N5          4.3625    0.5037    0.3619 N.am      1 <0>        -0.5526
     34 N6          5.7762    3.5917   -0.5046 N.am      1 <0>        -0.5576
     35 O1          6.9567    6.8465   -2.6685 O.2       1 <0>        -0.6710
     36 O2          5.3022    2.1819    2.7699 O.2       1 <0>        -0.4901
     37 O3          3.0463    2.4099    0.7491 O.2       1 <0>        -0.5902
     38 O4          7.6924    3.2783   -1.7917 O.2       1 <0>        -0.5833
     39 H1         11.6747    9.5075   -8.7400 H         1 <0>         0.1320
     40 H2         12.6111    8.9257   -6.5176 H         1 <0>         0.1324
     41 H3          9.2248    9.4105   -9.1180 H         1 <0>         0.1328
     42 H4         11.1066    8.2484   -4.6756 H         1 <0>         0.1324
     43 H5          7.7115    8.7346   -7.2826 H         1 <0>         0.1434
     44 H6          4.2675   -2.5545   -2.7839 H         1 <0>         0.0405
     45 H7          6.0024   -2.2918   -2.6299 H         1 <0>         0.0421
     46 H8          5.6667    0.0764   -2.1065 H         1 <0>         0.0362
     47 H9          4.8088   -0.3123   -3.5935 H         1 <0>         0.0439
     48 H10         5.0101   -3.3880   -0.6088 H         1 <0>         0.0350
     49 H11         5.7927   -1.8578   -0.2293 H         1 <0>         0.0428
     50 H12         3.4361    1.0988   -2.0620 H         1 <0>         0.0663
     51 H13         2.6716   -0.4470   -2.4229 H         1 <0>         0.0466
     52 H14         2.7962   -2.3605   -0.5667 H         1 <0>         0.0493
     53 H15         3.6378   -1.9924    0.9369 H         1 <0>         0.0520
     54 H16         4.3507    3.4578   -4.2870 H         1 <0>         0.0915
     55 H17         4.8908    2.1856   -3.1683 H         1 <0>         0.0601
     56 H18         8.4120    5.9885   -6.8390 H         1 <0>         0.0688
     57 H19         6.9149    6.8257   -6.4876 H         1 <0>         0.0630
     58 H20         6.9926    1.9855   -4.2725 H         1 <0>         0.0807
     59 H21         5.9735    2.3729   -5.6602 H         1 <0>         0.0380
     60 H22         5.7592    4.9288   -6.1435 H         1 <0>         0.0484
     61 H23         7.1185    4.1245   -6.9255 H         1 <0>         0.0697
     62 H24         5.0406    4.8864   -2.5107 H         1 <0>         0.0843
     63 H25         2.4111   -0.0062   -0.0327 H         1 <0>         0.0831
     64 H26         8.8151    8.3408   -3.7861 H         1 <0>         0.0704
     65 H27         7.4343    8.5386   -4.8464 H         1 <0>         0.0718
     66 H28         5.2579    4.9142    2.6804 H         1 <0>         0.0606
     67 H29         5.4809    5.7546    1.1500 H         1 <0>         0.0458
     68 H30         7.2000    6.0392    3.6534 H         1 <0>         0.0375
     69 H31         7.5258    6.8807    2.1417 H         1 <0>         0.0392
     70 H32         7.4599    3.7926    2.4354 H         1 <0>         0.0606
     71 H33         7.7645    4.6634    0.9347 H         1 <0>         0.0579
     72 H34         5.2908    8.0386    2.3228 H         1 <0>         0.0571
     73 H35         6.3225    8.3806    3.7198 H         1 <0>         0.0503
     74 H36         7.0421    2.3587    0.4881 H         1 <0>         0.0993
     75 H37         9.5764    4.9261   -4.7778 H         1 <0>         0.3700
     76 H38        10.0811    6.3037   -3.8286 H         1 <0>         0.3660
     77 H39         4.0028    7.6695    4.3608 H         1 <0>         0.3465
     78 H40         4.9421    6.2118    4.5770 H         1 <0>         0.3446
     79 H41         5.2837    0.1150    0.5408 H         1 <0>         0.3148
     80 H42         4.8120    3.9176   -0.5391 H         1 <0>         0.3220
@<TRIPOS>BOND
     1    1    2 ar
     2    1    3 ar
     3    2    4 ar
     4    3    5 ar
     5    4    6 ar
     6    5    6 ar
     7    6   23 1
     8    7   22 1
     9    7   29 am
    10    7   35 2
    11    8    9 1
    12    8   28 1
    13    8   36 2
    14    9   33 am
    15    9   37 2
    16   10   20 1
    17   10   34 am
    18   10   38 2
    19   11   12 1
    20   11   13 1
    21   12   14 1
    22   13   15 1
    23   14   21 1
    24   15   21 1
    25   16   18 1
    26   16   20 1
    27   17   19 1
    28   17   22 1
    29   18   30 1
    30   19   30 1
    31   20   29 1
    32   21   33 1
    33   22   23 1
    34   22   31 1
    35   24   25 1
    36   24   26 1
    37   25   27 1
    38   26   28 1
    39   27   32 1
    40   28   34 1
    41   29   30 1
    42    1   39 1
    43    2   40 1
    44    3   41 1
    45    4   42 1
    46    5   43 1
    47   11   44 1
    48   11   45 1
    49   12   46 1
    50   12   47 1
    51   13   48 1
    52   13   49 1
    53   14   50 1
    54   14   51 1
    55   15   52 1
    56   15   53 1
    57   16   54 1
    58   16   55 1
    59   17   56 1
    60   17   57 1
    61   18   58 1
    62   18   59 1
    63   19   60 1
    64   19   61 1
    65   20   62 1
    66   21   63 1
    67   23   64 1
    68   23   65 1
    69   24   66 1
    70   24   67 1
    71   25   68 1
    72   25   69 1
    73   26   70 1
    74   26   71 1
    75   27   72 1
    76   27   73 1
    77   28   74 1
    78   31   75 1
    79   31   76 1
    80   32   77 1
    81   32   78 1
    82   33   79 1
    83   34   80 1
@<TRIPOS>MOLECULE
1a46_ligand_28
   80    83     0     0     0
SMALL
USER_CHARGES

mmff94s_NoEstat = 81.58
@<TRIPOS>ATOM
      1 C1         11.0121    9.2104   -7.9325 C.ar      1 <0>        -0.1300
      2 C2         11.5385    8.8832   -6.6829 C.ar      1 <0>        -0.1323
      3 C3          9.6345    9.1559   -8.1449 C.ar      1 <0>        -0.1309
      4 C4         10.6874    8.5015   -5.6458 C.ar      1 <0>        -0.1275
      5 C5          8.7834    8.7742   -7.1078 C.ar      1 <0>        -0.1272
      6 C6          9.3154    8.4495   -5.8650 C.ar      1 <0>        -0.0843
      7 C7          7.2411    6.0968   -3.6024 C.2       1 <0>         0.6709
      8 C8          5.2358    2.3798    1.5634 C.2       1 <0>         0.4867
      9 C9          5.6457    1.7076    2.8411 C.2       1 <0>         0.5883
     10 C10         6.5256    3.6321   -1.6689 C.2       1 <0>         0.6572
     11 C11         9.7235   -1.0796    2.8207 C.3       1 <0>        -0.0802
     12 C12         8.4526   -1.6930    2.2388 C.3       1 <0>        -0.0765
     13 C13         9.4972    0.3517    3.3002 C.3       1 <0>        -0.0774
     14 C14         7.2832   -1.6014    3.2201 C.3       1 <0>        -0.0953
     15 C15         8.3255    0.4384    4.2793 C.3       1 <0>        -0.0906
     16 C16         5.2113    3.0694   -3.7284 C.3       1 <0>        -0.0871
     17 C17         7.6012    6.0599   -6.1012 C.3       1 <0>        -0.0716
     18 C18         6.3446    2.7580   -4.7039 C.3       1 <0>         0.1333
     19 C19         6.8355    4.7264   -6.0536 C.3       1 <0>         0.1246
     20 C20         5.7868    4.1659   -2.8575 C.3       1 <0>         0.0606
     21 C21         7.0342   -0.1713    3.7178 C.3       1 <0>         0.1012
     22 C22         8.1773    6.5224   -4.7422 C.3       1 <0>         0.1554
     23 C23         8.4000    8.0389   -4.7494 C.3       1 <0>        -0.0356
     24 C24         6.0158    5.3379    2.0114 C.3       1 <0>        -0.0795
     25 C25         6.7209    6.4716    2.7653 C.3       1 <0>        -0.1203
     26 C26         6.9719    4.2276    1.5544 C.3       1 <0>        -0.0920
     27 C27         5.7742    7.5909    3.1979 C.3       1 <0>         0.1502
     28 C28         6.2906    3.1130    0.7514 C.3       1 <0>         0.0224
     29 N1          6.7674    4.7991   -3.7183 N.am      1 <0>        -0.3553
     30 N2          7.1280    4.0001   -4.8193 N.3       1 <0>        -0.4320
     31 N3          9.4643    5.8648   -4.4722 N.3       1 <0>        -0.9031
     32 N4          6.5168    8.6391    3.8900 N.3       1 <0>        -0.9068
     33 N5          6.5118    0.6599    2.6310 N.am      1 <0>        -0.5526
     34 N6          5.7762    3.5917   -0.5046 N.am      1 <0>        -0.5576
     35 O1          6.9567    6.8465   -2.6685 O.2       1 <0>        -0.6710
     36 O2          4.0412    2.3628    1.2952 O.2       1 <0>        -0.4901
     37 O3          5.1730    2.1266    3.8850 O.2       1 <0>        -0.5902
     38 O4          7.6924    3.2783   -1.7917 O.2       1 <0>        -0.5833
     39 H1         11.6747    9.5075   -8.7400 H         1 <0>         0.1320
     40 H2         12.6111    8.9257   -6.5176 H         1 <0>         0.1324
     41 H3          9.2248    9.4105   -9.1180 H         1 <0>         0.1328
     42 H4         11.1066    8.2484   -4.6756 H         1 <0>         0.1324
     43 H5          7.7115    8.7346   -7.2826 H         1 <0>         0.1434
     44 H6         10.0697   -1.6931    3.6617 H         1 <0>         0.0405
     45 H7         10.5190   -1.0948    2.0671 H         1 <0>         0.0421
     46 H8          8.1939   -1.1805    1.3044 H         1 <0>         0.0362
     47 H9          8.6355   -2.7431    1.9836 H         1 <0>         0.0439
     48 H10        10.4072    0.7253    3.7834 H         1 <0>         0.0350
     49 H11         9.3078    1.0008    2.4368 H         1 <0>         0.0428
     50 H12         6.3793   -1.9968    2.7410 H         1 <0>         0.0663
     51 H13         7.4938   -2.2464    4.0826 H         1 <0>         0.0466
     52 H14         8.5960   -0.0894    5.2028 H         1 <0>         0.0493
     53 H15         8.1600    1.4882    4.5503 H         1 <0>         0.0520
     54 H16         4.3507    3.4578   -4.2870 H         1 <0>         0.0915
     55 H17         4.8908    2.1856   -3.1683 H         1 <0>         0.0601
     56 H18         8.4120    5.9885   -6.8390 H         1 <0>         0.0688
     57 H19         6.9149    6.8257   -6.4876 H         1 <0>         0.0630
     58 H20         6.9926    1.9855   -4.2725 H         1 <0>         0.0807
     59 H21         5.9735    2.3729   -5.6602 H         1 <0>         0.0380
     60 H22         5.7592    4.9288   -6.1435 H         1 <0>         0.0484
     61 H23         7.1185    4.1245   -6.9255 H         1 <0>         0.0697
     62 H24         5.0406    4.8864   -2.5107 H         1 <0>         0.0843
     63 H25         6.2589   -0.1767    4.4911 H         1 <0>         0.0831
     64 H26         8.8151    8.3408   -3.7861 H         1 <0>         0.0704
     65 H27         7.4343    8.5386   -4.8464 H         1 <0>         0.0718
     66 H28         5.2579    4.9142    2.6804 H         1 <0>         0.0606
     67 H29         5.4809    5.7546    1.1500 H         1 <0>         0.0458
     68 H30         7.2000    6.0392    3.6534 H         1 <0>         0.0375
     69 H31         7.5258    6.8807    2.1417 H         1 <0>         0.0392
     70 H32         7.4599    3.7926    2.4354 H         1 <0>         0.0606
     71 H33         7.7645    4.6634    0.9347 H         1 <0>         0.0579
     72 H34         4.9986    7.1962    3.8630 H         1 <0>         0.0571
     73 H35         5.2784    8.0349    2.3297 H         1 <0>         0.0503
     74 H36         7.0421    2.3587    0.4881 H         1 <0>         0.0993
     75 H37         9.5764    4.9261   -4.7778 H         1 <0>         0.3700
     76 H38        10.0811    6.3037   -3.8286 H         1 <0>         0.3660
     77 H39         5.9996    9.3711    4.3277 H         1 <0>         0.3465
     78 H40         7.4997    8.7018    3.7315 H         1 <0>         0.3446
     79 H41         6.8020    0.4535    1.6799 H         1 <0>         0.3148
     80 H42         4.8120    3.9176   -0.5391 H         1 <0>         0.3220
@<TRIPOS>BOND
     1    1    2 ar
     2    1    3 ar
     3    2    4 ar
     4    3    5 ar
     5    4    6 ar
     6    5    6 ar
     7    6   23 1
     8    7   22 1
     9    7   29 am
    10    7   35 2
    11    8    9 1
    12    8   28 1
    13    8   36 2
    14    9   33 am
    15    9   37 2
    16   10   20 1
    17   10   34 am
    18   10   38 2
    19   11   12 1
    20   11   13 1
    21   12   14 1
    22   13   15 1
    23   14   21 1
    24   15   21 1
    25   16   18 1
    26   16   20 1
    27   17   19 1
    28   17   22 1
    29   18   30 1
    30   19   30 1
    31   20   29 1
    32   21   33 1
    33   22   23 1
    34   22   31 1
    35   24   25 1
    36   24   26 1
    37   25   27 1
    38   26   28 1
    39   27   32 1
    40   28   34 1
    41   29   30 1
    42    1   39 1
    43    2   40 1
    44    3   41 1
    45    4   42 1
    46    5   43 1
    47   11   44 1
    48   11   45 1
    49   12   46 1
    50   12   47 1
    51   13   48 1
    52   13   49 1
    53   14   50 1
    54   14   51 1
    55   15   52 1
    56   15   53 1
    57   16   54 1
    58   16   55 1
    59   17   56 1
    60   17   57 1
    61   18   58 1
    62   18   59 1
    63   19   60 1
    64   19   61 1
    65   20   62 1
    66   21   63 1
    67   23   64 1
    68   23   65 1
    69   24   66 1
    70   24   67 1
    71   25   68 1
    72   25   69 1
    73   26   70 1
    74   26   71 1
    75   27   72 1
    76   27   73 1
    77   28   74 1
    78   31   75 1
    79   31   76 1
    80   32   77 1
    81   32   78 1
    82   33   79 1
    83   34   80 1
@<TRIPOS>MOLECULE
1a46_ligand_29
   80    83     0     0     0
SMALL
USER_CHARGES

mmff94s_NoEstat = 81.60
@<TRIPOS>ATOM
      1 C1         -6.7822    9.5030   -7.7682 C.ar      1 <0>        -0.1300
      2 C2         -5.4163    9.7853   -7.7613 C.ar      1 <0>        -0.1323
      3 C3         -7.2347    8.2371   -7.3962 C.ar      1 <0>        -0.1309
      4 C4         -4.5027    8.8017   -7.3825 C.ar      1 <0>        -0.1275
      5 C5         -6.3211    7.2534   -7.0174 C.ar      1 <0>        -0.1272
      6 C6         -4.9611    7.5422   -7.0130 C.ar      1 <0>        -0.0843
      7 C7         -2.5118    4.5743   -7.4005 C.2       1 <0>         0.6709
      8 C8          2.7796    3.2097   -6.1637 C.2       1 <0>         0.4867
      9 C9          2.2829    2.0299   -5.3801 C.2       1 <0>         0.5883
     10 C10        -0.0591    2.8141   -8.5012 C.2       1 <0>         0.6572
     11 C11        -0.0952    0.7327   -0.7029 C.3       1 <0>        -0.0802
     12 C12         1.2544    0.2267   -1.2045 C.3       1 <0>        -0.0765
     13 C13        -1.0596    1.0010   -1.8548 C.3       1 <0>        -0.0774
     14 C14         1.8632    1.1742   -2.2367 C.3       1 <0>        -0.0953
     15 C15        -0.4535    1.9500   -2.8873 C.3       1 <0>        -0.0906
     16 C16        -2.0373    1.4899   -9.2879 C.3       1 <0>        -0.0871
     17 C17        -4.7351    5.0124   -8.5142 C.3       1 <0>        -0.0716
     18 C18        -2.6100    2.4429  -10.3352 C.3       1 <0>         0.1333
     19 C19        -4.4053    3.7655   -9.3528 C.3       1 <0>         0.1246
     20 C20        -1.4789    2.4202   -8.2321 C.3       1 <0>         0.0606
     21 C21         0.8958    1.4320   -3.3972 C.3       1 <0>         0.1012
     22 C22        -3.5177    5.6586   -7.8120 C.3       1 <0>         0.1554
     23 C23        -3.9784    6.4841   -6.6055 C.3       1 <0>        -0.0356
     24 C24         1.5857    6.0302   -6.5865 C.3       1 <0>        -0.0795
     25 C25         1.6811    7.5259   -6.9095 C.3       1 <0>        -0.1203
     26 C26         2.1570    5.1335   -7.6933 C.3       1 <0>        -0.0920
     27 C27         1.0885    8.4192   -5.8200 C.3       1 <0>         0.1502
     28 C28         2.0196    3.6328   -7.4097 C.3       1 <0>         0.0224
     29 N1         -2.2867    3.6162   -8.3768 N.am      1 <0>        -0.3553
     30 N2         -2.9688    3.6719   -9.6065 N.3       1 <0>        -0.4320
     31 N3         -2.7962    6.5469   -8.7349 N.3       1 <0>        -0.9031
     32 N4          1.1980    9.8225   -6.2046 N.3       1 <0>        -0.9068
     33 N5          1.4800    2.3978   -4.3257 N.am      1 <0>        -0.5526
     34 N6          0.6426    3.2153   -7.3763 N.am      1 <0>        -0.5576
     35 O1         -1.9526    4.5762   -6.3040 O.2       1 <0>        -0.6710
     36 O2          3.8302    3.7133   -5.7870 O.2       1 <0>        -0.4901
     37 O3          2.6437    0.9181   -5.7301 O.2       1 <0>        -0.5902
     38 O4          0.3766    2.7593   -9.6452 O.2       1 <0>        -0.5833
     39 H1         -7.4936   10.2689   -8.0633 H         1 <0>         0.1320
     40 H2         -5.0642   10.7711   -8.0510 H         1 <0>         0.1324
     41 H3         -8.2983    8.0173   -7.4018 H         1 <0>         0.1328
     42 H4         -3.4404    9.0308   -7.3802 H         1 <0>         0.1324
     43 H5         -6.6828    6.2700   -6.7292 H         1 <0>         0.1434
     44 H6         -0.5335   -0.0026   -0.0187 H         1 <0>         0.0405
     45 H7          0.0526    1.6558   -0.1291 H         1 <0>         0.0421
     46 H8          1.9422    0.1116   -0.3592 H         1 <0>         0.0362
     47 H9          1.1287   -0.7669   -1.6521 H         1 <0>         0.0439
     48 H10        -1.3217    0.0532   -2.3408 H         1 <0>         0.0350
     49 H11        -1.9903    1.4277   -1.4641 H         1 <0>         0.0428
     50 H12         2.1267    2.1226   -1.7501 H         1 <0>         0.0663
     51 H13         2.8005    0.7504   -2.6175 H         1 <0>         0.0466
     52 H14        -1.1488    2.0728   -3.7266 H         1 <0>         0.0493
     53 H15        -0.3286    2.9446   -2.4393 H         1 <0>         0.0520
     54 H16        -2.8519    0.8938   -8.8584 H         1 <0>         0.0915
     55 H17        -1.2935    0.8073   -9.7102 H         1 <0>         0.0601
     56 H18        -5.2314    5.7584   -9.1499 H         1 <0>         0.0688
     57 H19        -5.4801    4.7212   -7.7613 H         1 <0>         0.0630
     58 H20        -1.8289    2.6942  -11.0628 H         1 <0>         0.0807
     59 H21        -3.4401    1.9950  -10.8925 H         1 <0>         0.0380
     60 H22        -4.7690    2.8732   -8.8248 H         1 <0>         0.0484
     61 H23        -4.9562    3.8199  -10.2995 H         1 <0>         0.0697
     62 H24        -1.5441    2.0192   -7.2167 H         1 <0>         0.0843
     63 H25         0.7468    0.5082   -3.9681 H         1 <0>         0.0831
     64 H26        -3.1056    6.9377   -6.1322 H         1 <0>         0.0704
     65 H27        -4.4243    5.8149   -5.8674 H         1 <0>         0.0718
     66 H28         2.1358    5.8550   -5.6547 H         1 <0>         0.0606
     67 H29         0.5392    5.7688   -6.3906 H         1 <0>         0.0458
     68 H30         2.7419    7.7748   -7.0444 H         1 <0>         0.0375
     69 H31         1.1870    7.7255   -7.8687 H         1 <0>         0.0392
     70 H32         3.2164    5.3787   -7.8393 H         1 <0>         0.0606
     71 H33         1.6466    5.3535   -8.6384 H         1 <0>         0.0579
     72 H34         1.6137    8.2608   -4.8719 H         1 <0>         0.0571
     73 H35         0.0315    8.1861   -5.6617 H         1 <0>         0.0503
     74 H36         2.4714    3.0747   -8.2388 H         1 <0>         0.0993
     75 H37        -2.7475    6.2791   -9.6905 H         1 <0>         0.3700
     76 H38        -2.2234    7.2564   -8.3400 H         1 <0>         0.3660
     77 H39         0.9557   10.5154   -5.5293 H         1 <0>         0.3465
     78 H40         1.3102   10.0373   -7.1723 H         1 <0>         0.3446
     79 H41         1.2844    3.3846   -4.1861 H         1 <0>         0.3148
     80 H42         0.1596    3.2148   -6.4798 H         1 <0>         0.3220
@<TRIPOS>BOND
     1    1    2 ar
     2    1    3 ar
     3    2    4 ar
     4    3    5 ar
     5    4    6 ar
     6    5    6 ar
     7    6   23 1
     8    7   22 1
     9    7   29 am
    10    7   35 2
    11    8    9 1
    12    8   28 1
    13    8   36 2
    14    9   33 am
    15    9   37 2
    16   10   20 1
    17   10   34 am
    18   10   38 2
    19   11   12 1
    20   11   13 1
    21   12   14 1
    22   13   15 1
    23   14   21 1
    24   15   21 1
    25   16   18 1
    26   16   20 1
    27   17   19 1
    28   17   22 1
    29   18   30 1
    30   19   30 1
    31   20   29 1
    32   21   33 1
    33   22   23 1
    34   22   31 1
    35   24   25 1
    36   24   26 1
    37   25   27 1
    38   26   28 1
    39   27   32 1
    40   28   34 1
    41   29   30 1
    42    1   39 1
    43    2   40 1
    44    3   41 1
    45    4   42 1
    46    5   43 1
    47   11   44 1
    48   11   45 1
    49   12   46 1
    50   12   47 1
    51   13   48 1
    52   13   49 1
    53   14   50 1
    54   14   51 1
    55   15   52 1
    56   15   53 1
    57   16   54 1
    58   16   55 1
    59   17   56 1
    60   17   57 1
    61   18   58 1
    62   18   59 1
    63   19   60 1
    64   19   61 1
    65   20   62 1
    66   21   63 1
    67   23   64 1
    68   23   65 1
    69   24   66 1
    70   24   67 1
    71   25   68 1
    72   25   69 1
    73   26   70 1
    74   26   71 1
    75   27   72 1
    76   27   73 1
    77   28   74 1
    78   31   75 1
    79   31   76 1
    80   32   77 1
    81   32   78 1
    82   33   79 1
    83   34   80 1
@<TRIPOS>MOLECULE
1a46_ligand_30
   80    83     0     0     0
SMALL
USER_CHARGES

mmff94s_NoEstat = 81.62
@<TRIPOS>ATOM
      1 C1         11.0121    9.2104   -7.9325 C.ar      1 <0>        -0.1300
      2 C2         11.5385    8.8832   -6.6829 C.ar      1 <0>        -0.1323
      3 C3          9.6345    9.1559   -8.1449 C.ar      1 <0>        -0.1309
      4 C4         10.6874    8.5015   -5.6458 C.ar      1 <0>        -0.1275
      5 C5          8.7834    8.7742   -7.1078 C.ar      1 <0>        -0.1272
      6 C6          9.3154    8.4495   -5.8650 C.ar      1 <0>        -0.0843
      7 C7          7.2411    6.0968   -3.6024 C.2       1 <0>         0.6709
      8 C8          5.2358    2.3798    1.5634 C.2       1 <0>         0.4867
      9 C9          5.6457    1.7076    2.8411 C.2       1 <0>         0.5883
     10 C10         6.5256    3.6321   -1.6689 C.2       1 <0>         0.6572
     11 C11         5.0414    4.2280    7.0457 C.3       1 <0>        -0.0802
     12 C12         6.2748    4.0372    6.1670 C.3       1 <0>        -0.0765
     13 C13         3.8167    3.5224    6.4694 C.3       1 <0>        -0.0774
     14 C14         6.5482    2.5574    5.8946 C.3       1 <0>        -0.0953
     15 C15         4.0959    2.0437    6.1966 C.3       1 <0>        -0.0906
     16 C16         5.2113    3.0694   -3.7284 C.3       1 <0>        -0.0871
     17 C17         7.6012    6.0599   -6.1012 C.3       1 <0>        -0.0716
     18 C18         6.3446    2.7580   -4.7039 C.3       1 <0>         0.1333
     19 C19         6.8355    4.7264   -6.0536 C.3       1 <0>         0.1246
     20 C20         5.7868    4.1659   -2.8575 C.3       1 <0>         0.0606
     21 C21         5.3317    1.8242    5.3139 C.3       1 <0>         0.1012
     22 C22         8.1773    6.5224   -4.7422 C.3       1 <0>         0.1554
     23 C23         8.4000    8.0389   -4.7494 C.3       1 <0>        -0.0356
     24 C24         6.0158    5.3379    2.0114 C.3       1 <0>        -0.0795
     25 C25         6.7209    6.4716    2.7653 C.3       1 <0>        -0.1203
     26 C26         6.9719    4.2276    1.5544 C.3       1 <0>        -0.0920
     27 C27         5.7742    7.5909    3.1979 C.3       1 <0>         0.1502
     28 C28         6.2906    3.1130    0.7514 C.3       1 <0>         0.0224
     29 N1          6.7674    4.7991   -3.7183 N.am      1 <0>        -0.3553
     30 N2          7.1280    4.0001   -4.8193 N.3       1 <0>        -0.4320
     31 N3          9.4643    5.8648   -4.4722 N.3       1 <0>        -0.9031
     32 N4          6.5168    8.6391    3.8900 N.3       1 <0>        -0.9068
     33 N5          5.0674    2.2831    3.9484 N.am      1 <0>        -0.5526
     34 N6          5.7762    3.5917   -0.5046 N.am      1 <0>        -0.5576
     35 O1          6.9567    6.8465   -2.6685 O.2       1 <0>        -0.6710
     36 O2          4.0412    2.3628    1.2952 O.2       1 <0>        -0.4901
     37 O3          6.4307    0.7761    2.7710 O.2       1 <0>        -0.5902
     38 O4          7.6924    3.2783   -1.7917 O.2       1 <0>        -0.5833
     39 H1         11.6747    9.5075   -8.7400 H         1 <0>         0.1320
     40 H2         12.6111    8.9257   -6.5176 H         1 <0>         0.1324
     41 H3          9.2248    9.4105   -9.1180 H         1 <0>         0.1328
     42 H4         11.1066    8.2484   -4.6756 H         1 <0>         0.1324
     43 H5          7.7115    8.7346   -7.2826 H         1 <0>         0.1434
     44 H6          5.2471    3.8352    8.0492 H         1 <0>         0.0405
     45 H7          4.8314    5.2975    7.1597 H         1 <0>         0.0421
     46 H8          6.1338    4.5692    5.2184 H         1 <0>         0.0362
     47 H9          7.1467    4.4871    6.6556 H         1 <0>         0.0439
     48 H10         2.9773    3.6143    7.1680 H         1 <0>         0.0350
     49 H11         3.5117    4.0197    5.5408 H         1 <0>         0.0428
     50 H12         7.4029    2.4687    5.2130 H         1 <0>         0.0663
     51 H13         6.8401    2.0726    6.8349 H         1 <0>         0.0466
     52 H14         4.2467    1.5293    7.1543 H         1 <0>         0.0493
     53 H15         3.2132    1.5912    5.7287 H         1 <0>         0.0520
     54 H16         4.3507    3.4578   -4.2870 H         1 <0>         0.0915
     55 H17         4.8908    2.1856   -3.1683 H         1 <0>         0.0601
     56 H18         8.4120    5.9885   -6.8390 H         1 <0>         0.0688
     57 H19         6.9149    6.8257   -6.4876 H         1 <0>         0.0630
     58 H20         6.9926    1.9855   -4.2725 H         1 <0>         0.0807
     59 H21         5.9735    2.3729   -5.6602 H         1 <0>         0.0380
     60 H22         5.7592    4.9288   -6.1435 H         1 <0>         0.0484
     61 H23         7.1185    4.1245   -6.9255 H         1 <0>         0.0697
     62 H24         5.0406    4.8864   -2.5107 H         1 <0>         0.0843
     63 H25         5.5463    0.7533    5.2346 H         1 <0>         0.0831
     64 H26         8.8151    8.3408   -3.7861 H         1 <0>         0.0704
     65 H27         7.4343    8.5386   -4.8464 H         1 <0>         0.0718
     66 H28         5.2579    4.9142    2.6804 H         1 <0>         0.0606
     67 H29         5.4809    5.7546    1.1500 H         1 <0>         0.0458
     68 H30         7.2000    6.0392    3.6534 H         1 <0>         0.0375
     69 H31         7.5258    6.8807    2.1417 H         1 <0>         0.0392
     70 H32         7.4599    3.7926    2.4354 H         1 <0>         0.0606
     71 H33         7.7645    4.6634    0.9347 H         1 <0>         0.0579
     72 H34         4.9986    7.1962    3.8630 H         1 <0>         0.0571
     73 H35         5.2784    8.0349    2.3297 H         1 <0>         0.0503
     74 H36         7.0421    2.3587    0.4881 H         1 <0>         0.0993
     75 H37         9.5764    4.9261   -4.7778 H         1 <0>         0.3700
     76 H38        10.0811    6.3037   -3.8286 H         1 <0>         0.3660
     77 H39         5.9996    9.3711    4.3277 H         1 <0>         0.3465
     78 H40         7.4997    8.7018    3.7315 H         1 <0>         0.3446
     79 H41         4.4287    3.0611    3.8132 H         1 <0>         0.3148
     80 H42         4.8120    3.9176   -0.5391 H         1 <0>         0.3220
@<TRIPOS>BOND
     1    1    2 ar
     2    1    3 ar
     3    2    4 ar
     4    3    5 ar
     5    4    6 ar
     6    5    6 ar
     7    6   23 1
     8    7   22 1
     9    7   29 am
    10    7   35 2
    11    8    9 1
    12    8   28 1
    13    8   36 2
    14    9   33 am
    15    9   37 2
    16   10   20 1
    17   10   34 am
    18   10   38 2
    19   11   12 1
    20   11   13 1
    21   12   14 1
    22   13   15 1
    23   14   21 1
    24   15   21 1
    25   16   18 1
    26   16   20 1
    27   17   19 1
    28   17   22 1
    29   18   30 1
    30   19   30 1
    31   20   29 1
    32   21   33 1
    33   22   23 1
    34   22   31 1
    35   24   25 1
    36   24   26 1
    37   25   27 1
    38   26   28 1
    39   27   32 1
    40   28   34 1
    41   29   30 1
    42    1   39 1
    43    2   40 1
    44    3   41 1
    45    4   42 1
    46    5   43 1
    47   11   44 1
    48   11   45 1
    49   12   46 1
    50   12   47 1
    51   13   48 1
    52   13   49 1
    53   14   50 1
    54   14   51 1
    55   15   52 1
    56   15   53 1
    57   16   54 1
    58   16   55 1
    59   17   56 1
    60   17   57 1
    61   18   58 1
    62   18   59 1
    63   19   60 1
    64   19   61 1
    65   20   62 1
    66   21   63 1
    67   23   64 1
    68   23   65 1
    69   24   66 1
    70   24   67 1
    71   25   68 1
    72   25   69 1
    73   26   70 1
    74   26   71 1
    75   27   72 1
    76   27   73 1
    77   28   74 1
    78   31   75 1
    79   31   76 1
    80   32   77 1
    81   32   78 1
    82   33   79 1
    83   34   80 1
@<TRIPOS>MOLECULE
1a46_ligand_31
   80    83     0     0     0
SMALL
USER_CHARGES

mmff94s_NoEstat = 81.63
@<TRIPOS>ATOM
      1 C1         11.2754    4.8325   -9.0920 C.ar      1 <0>        -0.1300
      2 C2         11.7701    4.4180   -7.8554 C.ar      1 <0>        -0.1323
      3 C3         10.0202    5.4353   -9.1745 C.ar      1 <0>        -0.1309
      4 C4         11.0095    4.6062   -6.7014 C.ar      1 <0>        -0.1275
      5 C5          9.2596    5.6235   -8.0205 C.ar      1 <0>        -0.1272
      6 C6          9.7592    5.2077   -6.7914 C.ar      1 <0>        -0.0843
      7 C7          7.1956    4.4061   -4.0088 C.2       1 <0>         0.6709
      8 C8          5.2358    2.3798    1.5634 C.2       1 <0>         0.4867
      9 C9          3.8230    2.3549    1.0577 C.2       1 <0>         0.5883
     10 C10         5.7098    2.8119   -1.6475 C.2       1 <0>         0.6572
     11 C11         1.4181    6.7678    0.8940 C.3       1 <0>        -0.0802
     12 C12         1.4560    5.8610    2.1213 C.3       1 <0>        -0.0765
     13 C13         2.2461    6.2031   -0.2573 C.3       1 <0>        -0.0774
     14 C14         1.0454    4.4289    1.7758 C.3       1 <0>        -0.0953
     15 C15         1.8333    4.7703   -0.5974 C.3       1 <0>        -0.0906
     16 C16         3.9879    2.7570   -3.4688 C.3       1 <0>        -0.0871
     17 C17         7.1089    3.9469   -6.4901 C.3       1 <0>        -0.0716
     18 C18         4.6769    1.8362   -4.4740 C.3       1 <0>         0.1333
     19 C19         5.8233    3.1683   -6.1618 C.3       1 <0>         0.1246
     20 C20         5.1372    3.5153   -2.8394 C.3       1 <0>         0.0606
     21 C21         1.8637    3.8371    0.6204 C.3       1 <0>         0.1012
     22 C22         8.0351    4.2042   -5.2782 C.3       1 <0>         0.1554
     23 C23         8.9412    5.4102   -5.5501 C.3       1 <0>        -0.0356
     24 C24         8.0800    4.9598    0.7851 C.3       1 <0>        -0.0795
     25 C25         8.7880    6.0338    1.6192 C.3       1 <0>        -0.1203
     26 C26         6.9719    4.2276    1.5544 C.3       1 <0>        -0.0920
     27 C27         9.9095    6.7454    0.8629 C.3       1 <0>         0.1502
     28 C28         6.2906    3.1130    0.7514 C.3       1 <0>         0.0224
     29 N1          6.1557    3.4998   -3.8720 N.am      1 <0>        -0.3553
     30 N2          5.9246    2.5201   -4.8556 N.3       1 <0>        -0.4320
     31 N3          8.8854    3.0337   -5.0159 N.3       1 <0>        -0.9031
     32 N4          9.3732    7.4215   -0.3138 N.3       1 <0>        -0.9068
     33 N5          3.2455    3.6032    1.0456 N.am      1 <0>        -0.5526
     34 N6          5.7762    3.5917   -0.5046 N.am      1 <0>        -0.5576
     35 O1          7.4442    5.2891   -3.1880 O.2       1 <0>        -0.6710
     36 O2          5.4669    1.7271    2.5732 O.2       1 <0>        -0.4901
     37 O3          3.3466    1.2762    0.7444 O.2       1 <0>        -0.5902
     38 O4          6.0670    1.6440   -1.7490 O.2       1 <0>        -0.5833
     39 H1         11.8675    4.6858   -9.9905 H         1 <0>         0.1320
     40 H2         12.7474    3.9487   -7.7912 H         1 <0>         0.1324
     41 H3          9.6350    5.7578  -10.1374 H         1 <0>         0.1328
     42 H4         11.4031    4.2801   -5.7423 H         1 <0>         0.1324
     43 H5          8.2827    6.0940   -8.0945 H         1 <0>         0.1434
     44 H6          0.3784    6.8907    0.5662 H         1 <0>         0.0405
     45 H7          1.7877    7.7645    1.1601 H         1 <0>         0.0421
     46 H8          2.4665    5.8646    2.5474 H         1 <0>         0.0362
     47 H9          0.7860    6.2585    2.8922 H         1 <0>         0.0439
     48 H10         2.1267    6.8389   -1.1420 H         1 <0>         0.0350
     49 H11         3.3094    6.2291    0.0101 H         1 <0>         0.0428
     50 H12         1.1447    3.8004    2.6691 H         1 <0>         0.0663
     51 H13        -0.0166    4.4224    1.4992 H         1 <0>         0.0466
     52 H14         0.8166    4.7834   -1.0104 H         1 <0>         0.0493
     53 H15         2.4912    4.3837   -1.3851 H         1 <0>         0.0520
     54 H16         3.3373    3.4571   -4.0075 H         1 <0>         0.0915
     55 H17         3.3792    2.2031   -2.7476 H         1 <0>         0.0601
     56 H18         7.6671    3.4155   -7.2730 H         1 <0>         0.0688
     57 H19         6.8138    4.9067   -6.9355 H         1 <0>         0.0630
     58 H20         4.9425    0.8939   -3.9800 H         1 <0>         0.0807
     59 H21         4.0270    1.5868   -5.3200 H         1 <0>         0.0380
     60 H22         4.9696    3.8594   -6.1912 H         1 <0>         0.0484
     61 H23         5.6526    2.4206   -6.9455 H         1 <0>         0.0697
     62 H24         4.8809    4.5388   -2.5517 H         1 <0>         0.0843
     63 H25         1.4635    2.8554    0.3463 H         1 <0>         0.0831
     64 H26         9.5913    5.5668   -4.6874 H         1 <0>         0.0704
     65 H27         8.3224    6.3045   -5.6440 H         1 <0>         0.0718
     66 H28         7.6494    5.4516   -0.0948 H         1 <0>         0.0606
     67 H29         8.8216    4.2418    0.4157 H         1 <0>         0.0458
     68 H30         8.0356    6.7709    1.9287 H         1 <0>         0.0375
     69 H31         9.1825    5.5824    2.5383 H         1 <0>         0.0392
     70 H32         6.2171    4.9575    1.8728 H         1 <0>         0.0606
     71 H33         7.3929    3.7874    2.4660 H         1 <0>         0.0579
     72 H34        10.6735    6.0252    0.5509 H         1 <0>         0.0571
     73 H35        10.3920    7.4923    1.5001 H         1 <0>         0.0503
     74 H36         7.0421    2.3587    0.4881 H         1 <0>         0.0993
     75 H37         8.4943    2.1340   -5.1738 H         1 <0>         0.3700
     76 H38         9.7264    3.1786   -4.5069 H         1 <0>         0.3660
     77 H39        10.0182    7.8250   -0.9589 H         1 <0>         0.3465
     78 H40         8.3988    7.6342   -0.3305 H         1 <0>         0.3446
     79 H41         3.8022    4.3983    1.3448 H         1 <0>         0.3148
     80 H42         5.4441    4.5531   -0.5557 H         1 <0>         0.3220
@<TRIPOS>BOND
     1    1    2 ar
     2    1    3 ar
     3    2    4 ar
     4    3    5 ar
     5    4    6 ar
     6    5    6 ar
     7    6   23 1
     8    7   22 1
     9    7   29 am
    10    7   35 2
    11    8    9 1
    12    8   28 1
    13    8   36 2
    14    9   33 am
    15    9   37 2
    16   10   20 1
    17   10   34 am
    18   10   38 2
    19   11   12 1
    20   11   13 1
    21   12   14 1
    22   13   15 1
    23   14   21 1
    24   15   21 1
    25   16   18 1
    26   16   20 1
    27   17   19 1
    28   17   22 1
    29   18   30 1
    30   19   30 1
    31   20   29 1
    32   21   33 1
    33   22   23 1
    34   22   31 1
    35   24   25 1
    36   24   26 1
    37   25   27 1
    38   26   28 1
    39   27   32 1
    40   28   34 1
    41   29   30 1
    42    1   39 1
    43    2   40 1
    44    3   41 1
    45    4   42 1
    46    5   43 1
    47   11   44 1
    48   11   45 1
    49   12   46 1
    50   12   47 1
    51   13   48 1
    52   13   49 1
    53   14   50 1
    54   14   51 1
    55   15   52 1
    56   15   53 1
    57   16   54 1
    58   16   55 1
    59   17   56 1
    60   17   57 1
    61   18   58 1
    62   18   59 1
    63   19   60 1
    64   19   61 1
    65   20   62 1
    66   21   63 1
    67   23   64 1
    68   23   65 1
    69   24   66 1
    70   24   67 1
    71   25   68 1
    72   25   69 1
    73   26   70 1
    74   26   71 1
    75   27   72 1
    76   27   73 1
    77   28   74 1
    78   31   75 1
    79   31   76 1
    80   32   77 1
    81   32   78 1
    82   33   79 1
    83   34   80 1
@<TRIPOS>MOLECULE
1a46_ligand_32
   80    83     0     0     0
SMALL
USER_CHARGES

mmff94s_NoEstat = 81.67
@<TRIPOS>ATOM
      1 C1          5.9504   -1.3642  -10.1903 C.ar      1 <0>        -0.1300
      2 C2          6.6765   -1.8241   -9.0918 C.ar      1 <0>        -0.1323
      3 C3          5.5463   -0.0305  -10.2504 C.ar      1 <0>        -0.1309
      4 C4          6.9984   -0.9504   -8.0532 C.ar      1 <0>        -0.1275
      5 C5          5.8681    0.8432   -9.2119 C.ar      1 <0>        -0.1272
      6 C6          6.5921    0.3776   -8.1201 C.ar      1 <0>        -0.0843
      7 C7          6.1974    2.2868   -4.7798 C.2       1 <0>         0.6709
      8 C8          5.2358    2.3798    1.5634 C.2       1 <0>         0.4867
      9 C9          4.0737    1.7586    0.8450 C.2       1 <0>         0.5883
     10 C10         5.7098    2.8119   -1.6475 C.2       1 <0>         0.6572
     11 C11         4.0644   -3.1378    0.1954 C.3       1 <0>        -0.0802
     12 C12         4.9349   -2.3079   -0.7445 C.3       1 <0>        -0.0765
     13 C13         3.3449   -2.2675    1.2224 C.3       1 <0>        -0.0774
     14 C14         4.1346   -1.1879   -1.4107 C.3       1 <0>        -0.0953
     15 C15         2.5480   -1.1477    0.5515 C.3       1 <0>        -0.0906
     16 C16         3.6723    3.8570   -2.6681 C.3       1 <0>        -0.0871
     17 C17         4.4858    1.7161   -6.5463 C.3       1 <0>        -0.0716
     18 C18         2.9535    2.6133   -3.1875 C.3       1 <0>         0.1333
     19 C19         3.4659    2.2898   -5.5476 C.3       1 <0>         0.1246
     20 C20         5.1372    3.5153   -2.8394 C.3       1 <0>         0.0606
     21 C21         3.4011   -0.2972   -0.3991 C.3       1 <0>         0.1012
     22 C22         5.8481    1.3265   -5.9256 C.3       1 <0>         0.1554
     23 C23         6.9383    1.3175   -7.0029 C.3       1 <0>        -0.0356
     24 C24         8.0800    4.9598    0.7851 C.3       1 <0>        -0.0795
     25 C25         8.7880    6.0338    1.6192 C.3       1 <0>        -0.1203
     26 C26         6.9719    4.2276    1.5544 C.3       1 <0>        -0.0920
     27 C27         9.9095    6.7454    0.8629 C.3       1 <0>         0.1502
     28 C28         6.2906    3.1130    0.7514 C.3       1 <0>         0.0224
     29 N1          5.1345    2.5635   -3.9339 N.am      1 <0>        -0.3553
     30 N2          3.8653    2.0037   -4.1710 N.3       1 <0>        -0.4320
     31 N3          5.7803   -0.0123   -5.3216 N.3       1 <0>        -0.9031
     32 N4         10.5470    7.7366    1.7233 N.3       1 <0>        -0.9068
     33 N5          4.3625    0.5037    0.3619 N.am      1 <0>        -0.5526
     34 N6          5.7762    3.5917   -0.5046 N.am      1 <0>        -0.5576
     35 O1          7.3278    2.7504   -4.6301 O.2       1 <0>        -0.6710
     36 O2          5.3022    2.1819    2.7699 O.2       1 <0>        -0.4901
     37 O3          3.0463    2.4099    0.7491 O.2       1 <0>        -0.5902
     38 O4          6.0670    1.6440   -1.7490 O.2       1 <0>        -0.5833
     39 H1          5.6997   -2.0446  -10.9989 H         1 <0>         0.1320
     40 H2          6.9911   -2.8626   -9.0451 H         1 <0>         0.1324
     41 H3          4.9808    0.3274  -11.1059 H         1 <0>         0.1328
     42 H4          7.5644   -1.3176   -7.2012 H         1 <0>         0.1324
     43 H5          5.5489    1.8806   -9.2673 H         1 <0>         0.1434
     44 H6          3.3227   -3.6924   -0.3927 H         1 <0>         0.0405
     45 H7          4.6827   -3.8816    0.7106 H         1 <0>         0.0421
     46 H8          5.7747   -1.8806   -0.1833 H         1 <0>         0.0362
     47 H9          5.3667   -2.9577   -1.5143 H         1 <0>         0.0439
     48 H10         2.6703   -2.8890    1.8223 H         1 <0>         0.0350
     49 H11         4.0784   -1.8371    1.9148 H         1 <0>         0.0428
     50 H12         4.8088   -0.5817   -2.0279 H         1 <0>         0.0663
     51 H13         3.3981   -1.6353   -2.0902 H         1 <0>         0.0466
     52 H14         1.7203   -1.5929   -0.0152 H         1 <0>         0.0493
     53 H15         2.0985   -0.5129    1.3247 H         1 <0>         0.0520
     54 H16         3.4181    4.7133   -3.3051 H         1 <0>         0.0915
     55 H17         3.3944    4.0971   -1.6373 H         1 <0>         0.0601
     56 H18         4.0497    0.8441   -7.0524 H         1 <0>         0.0688
     57 H19         4.6431    2.4675   -7.3320 H         1 <0>         0.0630
     58 H20         2.8170    1.9026   -2.3635 H         1 <0>         0.0807
     59 H21         1.9588    2.8453   -3.5837 H         1 <0>         0.0380
     60 H22         3.3744    3.3723   -5.7123 H         1 <0>         0.0484
     61 H23         2.4818    1.8533   -5.7569 H         1 <0>         0.0697
     62 H24         5.7646    4.3810   -3.0694 H         1 <0>         0.0843
     63 H25         2.7649    0.4200   -0.9282 H         1 <0>         0.0831
     64 H26         7.8868    1.0311   -6.5450 H         1 <0>         0.0704
     65 H27         7.0672    2.3317   -7.3854 H         1 <0>         0.0718
     66 H28         7.6494    5.4516   -0.0948 H         1 <0>         0.0606
     67 H29         8.8216    4.2418    0.4157 H         1 <0>         0.0458
     68 H30         8.0356    6.7709    1.9287 H         1 <0>         0.0375
     69 H31         9.1825    5.5824    2.5383 H         1 <0>         0.0392
     70 H32         6.2171    4.9575    1.8728 H         1 <0>         0.0606
     71 H33         7.3929    3.7874    2.4660 H         1 <0>         0.0579
     72 H34         9.5108    7.2416   -0.0285 H         1 <0>         0.0571
     73 H35        10.6706    6.0303    0.5375 H         1 <0>         0.0503
     74 H36         7.0421    2.3587    0.4881 H         1 <0>         0.0993
     75 H37         4.9287   -0.2795   -4.8849 H         1 <0>         0.3700
     76 H38         6.6336   -0.5056   -5.1950 H         1 <0>         0.3660
     77 H39        11.2163    8.3531    1.3147 H         1 <0>         0.3465
     78 H40        10.4498    7.6340    2.7108 H         1 <0>         0.3446
     79 H41         5.2837    0.1150    0.5408 H         1 <0>         0.3148
     80 H42         5.4441    4.5531   -0.5557 H         1 <0>         0.3220
@<TRIPOS>BOND
     1    1    2 ar
     2    1    3 ar
     3    2    4 ar
     4    3    5 ar
     5    4    6 ar
     6    5    6 ar
     7    6   23 1
     8    7   22 1
     9    7   29 am
    10    7   35 2
    11    8    9 1
    12    8   28 1
    13    8   36 2
    14    9   33 am
    15    9   37 2
    16   10   20 1
    17   10   34 am
    18   10   38 2
    19   11   12 1
    20   11   13 1
    21   12   14 1
    22   13   15 1
    23   14   21 1
    24   15   21 1
    25   16   18 1
    26   16   20 1
    27   17   19 1
    28   17   22 1
    29   18   30 1
    30   19   30 1
    31   20   29 1
    32   21   33 1
    33   22   23 1
    34   22   31 1
    35   24   25 1
    36   24   26 1
    37   25   27 1
    38   26   28 1
    39   27   32 1
    40   28   34 1
    41   29   30 1
    42    1   39 1
    43    2   40 1
    44    3   41 1
    45    4   42 1
    46    5   43 1
    47   11   44 1
    48   11   45 1
    49   12   46 1
    50   12   47 1
    51   13   48 1
    52   13   49 1
    53   14   50 1
    54   14   51 1
    55   15   52 1
    56   15   53 1
    57   16   54 1
    58   16   55 1
    59   17   56 1
    60   17   57 1
    61   18   58 1
    62   18   59 1
    63   19   60 1
    64   19   61 1
    65   20   62 1
    66   21   63 1
    67   23   64 1
    68   23   65 1
    69   24   66 1
    70   24   67 1
    71   25   68 1
    72   25   69 1
    73   26   70 1
    74   26   71 1
    75   27   72 1
    76   27   73 1
    77   28   74 1
    78   31   75 1
    79   31   76 1
    80   32   77 1
    81   32   78 1
    82   33   79 1
    83   34   80 1
@<TRIPOS>MOLECULE
1a46_ligand_33
   80    83     0     0     0
SMALL
USER_CHARGES

mmff94s_NoEstat = 81.71
@<TRIPOS>ATOM
      1 C1          9.3427    1.2226  -10.2936 C.ar      1 <0>        -0.1300
      2 C2          9.9666    0.8172   -9.1138 C.ar      1 <0>        -0.1323
      3 C3          8.4336    2.2805  -10.2739 C.ar      1 <0>        -0.1309
      4 C4          9.6814    1.4695   -7.9143 C.ar      1 <0>        -0.1275
      5 C5          8.1485    2.9328   -9.0744 C.ar      1 <0>        -0.1272
      6 C6          8.7742    2.5231   -7.9024 C.ar      1 <0>        -0.0843
      7 C7          6.9710    3.2795   -4.5657 C.2       1 <0>         0.6709
      8 C8          5.2358    2.3798    1.5634 C.2       1 <0>         0.4867
      9 C9          3.8230    2.3549    1.0577 C.2       1 <0>         0.5883
     10 C10         5.7098    2.8119   -1.6475 C.2       1 <0>         0.6572
     11 C11         0.3896    4.6662    3.7535 C.3       1 <0>        -0.0802
     12 C12         0.7833    3.1927    3.6928 C.3       1 <0>        -0.0765
     13 C13         1.2470    5.5235    2.8264 C.3       1 <0>        -0.0774
     14 C14         0.7693    2.6651    2.2575 C.3       1 <0>        -0.0953
     15 C15         1.2316    4.9906    1.3930 C.3       1 <0>        -0.0906
     16 C16         3.6624    3.2324   -3.0320 C.3       1 <0>        -0.0871
     17 C17         6.0388    2.5547   -6.7975 C.3       1 <0>        -0.0716
     18 C18         3.6514    1.9752   -3.8994 C.3       1 <0>         0.1333
     19 C19         4.6996    2.4463   -6.0480 C.3       1 <0>         0.1246
     20 C20         5.1372    3.5153   -2.8394 C.3       1 <0>         0.0606
     21 C21         1.6248    3.5100    1.3041 C.3       1 <0>         0.1012
     22 C22         7.2891    2.5653   -5.8869 C.3       1 <0>         0.1554
     23 C23         8.4675    3.2247   -6.6121 C.3       1 <0>        -0.0356
     24 C24         6.0158    5.3379    2.0114 C.3       1 <0>        -0.0795
     25 C25         6.7209    6.4716    2.7653 C.3       1 <0>        -0.1203
     26 C26         6.9719    4.2276    1.5544 C.3       1 <0>        -0.0920
     27 C27         5.7742    7.5909    3.1979 C.3       1 <0>         0.1502
     28 C28         6.2906    3.1130    0.7514 C.3       1 <0>         0.0224
     29 N1          5.7488    2.9259   -4.0152 N.am      1 <0>        -0.3553
     30 N2          4.9069    2.0073   -4.6693 N.3       1 <0>        -0.4320
     31 N3          7.6768    1.1953   -5.5201 N.3       1 <0>        -0.9031
     32 N4          4.7531    7.0666    4.0988 N.3       1 <0>        -0.9068
     33 N5          3.0460    3.3433    1.6158 N.am      1 <0>        -0.5526
     34 N6          5.7762    3.5917   -0.5046 N.am      1 <0>        -0.5576
     35 O1          7.7474    4.0812   -4.0464 O.2       1 <0>        -0.6710
     36 O2          5.4669    1.7271    2.5732 O.2       1 <0>        -0.4901
     37 O3          3.5174    1.4867    0.2568 O.2       1 <0>        -0.5902
     38 O4          6.0670    1.6440   -1.7490 O.2       1 <0>        -0.5833
     39 H1          9.5646    0.7147  -11.2275 H         1 <0>         0.1320
     40 H2         10.6743   -0.0064   -9.1292 H         1 <0>         0.1324
     41 H3          7.9478    2.5960  -11.1926 H         1 <0>         0.1328
     42 H4         10.1723    1.1467   -7.0000 H         1 <0>         0.1324
     43 H5          7.4388    3.7559   -9.0687 H         1 <0>         0.1434
     44 H6         -0.6654    4.7712    3.4715 H         1 <0>         0.0405
     45 H7          0.4815    5.0305    4.7829 H         1 <0>         0.0421
     46 H8          1.7825    3.0631    4.1260 H         1 <0>         0.0362
     47 H9          0.0932    2.6028    4.3070 H         1 <0>         0.0439
     48 H10         0.8803    6.5563    2.8376 H         1 <0>         0.0350
     49 H11         2.2773    5.5493    3.2014 H         1 <0>         0.0428
     50 H12         1.1154    1.6244    2.2530 H         1 <0>         0.0663
     51 H13        -0.2661    2.6571    1.8937 H         1 <0>         0.0466
     52 H14         0.2228    5.1163    0.9794 H         1 <0>         0.0493
     53 H15         1.9056    5.5973    0.7762 H         1 <0>         0.0520
     54 H16         3.1996    4.0578   -3.5869 H         1 <0>         0.0915
     55 H17         3.1150    3.0948   -2.0945 H         1 <0>         0.0601
     56 H18         6.1186    1.7328   -7.5220 H         1 <0>         0.0688
     57 H19         6.0134    3.4760   -7.3953 H         1 <0>         0.0630
     58 H20         3.6705    1.0888   -3.2538 H         1 <0>         0.0807
     59 H21         2.7495    1.9066   -4.5175 H         1 <0>         0.0380
     60 H22         4.1937    3.4213   -6.0771 H         1 <0>         0.0484
     61 H23         4.0529    1.7380   -6.5798 H         1 <0>         0.0697
     62 H24         5.3721    4.5807   -2.7630 H         1 <0>         0.0843
     63 H25         1.4987    3.1531    0.2766 H         1 <0>         0.0831
     64 H26         9.3395    3.2124   -5.9558 H         1 <0>         0.0704
     65 H27         8.2279    4.2735   -6.7972 H         1 <0>         0.0718
     66 H28         5.2579    4.9142    2.6804 H         1 <0>         0.0606
     67 H29         5.4809    5.7546    1.1500 H         1 <0>         0.0458
     68 H30         7.2000    6.0392    3.6534 H         1 <0>         0.0375
     69 H31         7.5258    6.8807    2.1417 H         1 <0>         0.0392
     70 H32         7.4599    3.7926    2.4354 H         1 <0>         0.0606
     71 H33         7.7645    4.6634    0.9347 H         1 <0>         0.0579
     72 H34         5.2908    8.0386    2.3228 H         1 <0>         0.0571
     73 H35         6.3225    8.3806    3.7198 H         1 <0>         0.0503
     74 H36         7.0421    2.3587    0.4881 H         1 <0>         0.0993
     75 H37         6.9507    0.5323   -5.3773 H         1 <0>         0.3700
     76 H38         8.6161    1.0420   -5.2343 H         1 <0>         0.3660
     77 H39         4.0028    7.6695    4.3608 H         1 <0>         0.3465
     78 H40         4.9421    6.2118    4.5770 H         1 <0>         0.3446
     79 H41         3.4772    3.9862    2.2733 H         1 <0>         0.3148
     80 H42         5.4441    4.5531   -0.5557 H         1 <0>         0.3220
@<TRIPOS>BOND
     1    1    2 ar
     2    1    3 ar
     3    2    4 ar
     4    3    5 ar
     5    4    6 ar
     6    5    6 ar
     7    6   23 1
     8    7   22 1
     9    7   29 am
    10    7   35 2
    11    8    9 1
    12    8   28 1
    13    8   36 2
    14    9   33 am
    15    9   37 2
    16   10   20 1
    17   10   34 am
    18   10   38 2
    19   11   12 1
    20   11   13 1
    21   12   14 1
    22   13   15 1
    23   14   21 1
    24   15   21 1
    25   16   18 1
    26   16   20 1
    27   17   19 1
    28   17   22 1
    29   18   30 1
    30   19   30 1
    31   20   29 1
    32   21   33 1
    33   22   23 1
    34   22   31 1
    35   24   25 1
    36   24   26 1
    37   25   27 1
    38   26   28 1
    39   27   32 1
    40   28   34 1
    41   29   30 1
    42    1   39 1
    43    2   40 1
    44    3   41 1
    45    4   42 1
    46    5   43 1
    47   11   44 1
    48   11   45 1
    49   12   46 1
    50   12   47 1
    51   13   48 1
    52   13   49 1
    53   14   50 1
    54   14   51 1
    55   15   52 1
    56   15   53 1
    57   16   54 1
    58   16   55 1
    59   17   56 1
    60   17   57 1
    61   18   58 1
    62   18   59 1
    63   19   60 1
    64   19   61 1
    65   20   62 1
    66   21   63 1
    67   23   64 1
    68   23   65 1
    69   24   66 1
    70   24   67 1
    71   25   68 1
    72   25   69 1
    73   26   70 1
    74   26   71 1
    75   27   72 1
    76   27   73 1
    77   28   74 1
    78   31   75 1
    79   31   76 1
    80   32   77 1
    81   32   78 1
    82   33   79 1
    83   34   80 1
@<TRIPOS>MOLECULE
1a46_ligand_34
   80    83     0     0     0
SMALL
USER_CHARGES

mmff94s_NoEstat = 81.76
@<TRIPOS>ATOM
      1 C1         -4.4072   -3.0319  -14.4211 C.ar      1 <0>        -0.1300
      2 C2         -3.1014   -2.5683  -14.5810 C.ar      1 <0>        -0.1323
      3 C3         -5.2666   -2.3997  -13.5224 C.ar      1 <0>        -0.1309
      4 C4         -2.6549   -1.4727  -13.8421 C.ar      1 <0>        -0.1275
      5 C5         -4.8200   -1.3041  -12.7835 C.ar      1 <0>        -0.1272
      6 C6         -3.5171   -0.8478  -12.9482 C.ar      1 <0>        -0.0843
      7 C7         -1.9267    1.0916  -10.0042 C.2       1 <0>         0.6709
      8 C8          2.7796    3.2097   -6.1637 C.2       1 <0>         0.4867
      9 C9          2.0233    2.5606   -5.0416 C.2       1 <0>         0.5883
     10 C10         0.2181    1.9581   -7.7739 C.2       1 <0>         0.6572
     11 C11         1.9645   -1.8404   -1.9043 C.3       1 <0>        -0.0802
     12 C12         1.2252   -1.9940   -3.2304 C.3       1 <0>        -0.0765
     13 C13         1.9764   -0.3897   -1.4308 C.3       1 <0>        -0.0774
     14 C14         1.7870   -1.0593   -4.3004 C.3       1 <0>        -0.0953
     15 C15         2.5397    0.5467   -2.4984 C.3       1 <0>        -0.0906
     16 C16        -1.6423    1.0361   -6.3687 C.3       1 <0>        -0.0871
     17 C17        -3.4475   -0.9240   -9.9997 C.3       1 <0>        -0.0716
     18 C18        -1.5606   -0.4439   -6.7372 C.3       1 <0>         0.1333
     19 C19        -3.1819   -0.9495   -8.4846 C.3       1 <0>         0.1246
     20 C20        -1.2590    1.7411   -7.6524 C.3       1 <0>         0.0606
     21 C21         1.7865    0.3978   -3.8249 C.3       1 <0>         0.1012
     22 C22        -2.4199   -0.1108  -10.8216 C.3       1 <0>         0.1554
     23 C23        -3.0368    0.3307  -12.1535 C.3       1 <0>        -0.0356
     24 C24         1.5857    6.0302   -6.5865 C.3       1 <0>        -0.0795
     25 C25         1.6811    7.5259   -6.9095 C.3       1 <0>        -0.1203
     26 C26         2.1570    5.1335   -7.6933 C.3       1 <0>        -0.0920
     27 C27         1.0885    8.4192   -5.8200 C.3       1 <0>         0.1502
     28 C28         2.0196    3.6328   -7.4097 C.3       1 <0>         0.0224
     29 N1         -1.6352    0.7917   -8.6825 N.am      1 <0>        -0.3553
     30 N2         -1.8196   -0.5121   -8.1858 N.3       1 <0>        -0.4320
     31 N3         -1.2259   -0.9195  -11.1076 N.3       1 <0>        -0.9031
     32 N4          1.1980    9.8225   -6.2046 N.3       1 <0>        -0.9068
     33 N5          2.3972    1.2522   -4.8415 N.am      1 <0>        -0.5526
     34 N6          0.6426    3.2153   -7.3763 N.am      1 <0>        -0.5576
     35 O1         -1.7935    2.2123  -10.4955 O.2       1 <0>        -0.6710
     36 O2          3.9949    3.2835   -6.0334 O.2       1 <0>        -0.4901
     37 O3          1.1778    3.2234   -4.4630 O.2       1 <0>        -0.5902
     38 O4          0.9290    1.0536   -8.1959 O.2       1 <0>        -0.5833
     39 H1         -4.7549   -3.8850  -14.9963 H         1 <0>         0.1320
     40 H2         -2.4324   -3.0606  -15.2808 H         1 <0>         0.1324
     41 H3         -6.2832   -2.7609  -13.3979 H         1 <0>         0.1328
     42 H4         -1.6358   -1.1186  -13.9733 H         1 <0>         0.1324
     43 H5         -5.4966   -0.8180  -12.0857 H         1 <0>         0.1434
     44 H6          1.4927   -2.4726   -1.1437 H         1 <0>         0.0405
     45 H7          2.9964   -2.1943   -2.0196 H         1 <0>         0.0421
     46 H8          1.2964   -3.0321   -3.5740 H         1 <0>         0.0362
     47 H9          0.1599   -1.7786   -3.0820 H         1 <0>         0.0439
     48 H10         0.9554   -0.0796   -1.1762 H         1 <0>         0.0350
     49 H11         2.5731   -0.3059   -0.5155 H         1 <0>         0.0428
     50 H12         2.8086   -1.3703   -4.5560 H         1 <0>         0.0663
     51 H13         1.1952   -1.1537   -5.2190 H         1 <0>         0.0466
     52 H14         2.4782    1.5839   -2.1473 H         1 <0>         0.0493
     53 H15         3.6062    0.3314   -2.6462 H         1 <0>         0.0520
     54 H16        -2.6779    1.2865   -6.1074 H         1 <0>         0.0915
     55 H17        -0.9998    1.2887   -5.5196 H         1 <0>         0.0601
     56 H18        -3.4897   -1.9539  -10.3797 H         1 <0>         0.0688
     57 H19        -4.4523   -0.5086  -10.1558 H         1 <0>         0.0630
     58 H20        -0.5419   -0.8072   -6.5560 H         1 <0>         0.0807
     59 H21        -2.2364   -1.0589   -6.1327 H         1 <0>         0.0380
     60 H22        -3.9187   -0.3080   -7.9817 H         1 <0>         0.0484
     61 H23        -3.3442   -1.9688   -8.1140 H         1 <0>         0.0697
     62 H24        -1.7661    2.6997   -7.7936 H         1 <0>         0.0843
     63 H25         0.7550    0.7494   -3.7073 H         1 <0>         0.0831
     64 H26        -2.2923    0.8934  -12.7197 H         1 <0>         0.0704
     65 H27        -3.8625    1.0157  -11.9521 H         1 <0>         0.0718
     66 H28         2.1358    5.8550   -5.6547 H         1 <0>         0.0606
     67 H29         0.5392    5.7688   -6.3906 H         1 <0>         0.0458
     68 H30         2.7419    7.7748   -7.0444 H         1 <0>         0.0375
     69 H31         1.1870    7.7255   -7.8687 H         1 <0>         0.0392
     70 H32         3.2164    5.3787   -7.8393 H         1 <0>         0.0606
     71 H33         1.6466    5.3535   -8.6384 H         1 <0>         0.0579
     72 H34         1.6137    8.2608   -4.8719 H         1 <0>         0.0571
     73 H35         0.0315    8.1861   -5.6617 H         1 <0>         0.0503
     74 H36         2.4714    3.0747   -8.2388 H         1 <0>         0.0993
     75 H37        -0.9249   -1.5612  -10.4112 H         1 <0>         0.3700
     76 H38        -0.6609   -0.6518  -11.8799 H         1 <0>         0.3660
     77 H39         0.9557   10.5154   -5.5293 H         1 <0>         0.3465
     78 H40         1.3102   10.0373   -7.1723 H         1 <0>         0.3446
     79 H41         3.1304    0.8623   -5.4263 H         1 <0>         0.3148
     80 H42        -0.0552    3.8781   -7.0434 H         1 <0>         0.3220
@<TRIPOS>BOND
     1    1    2 ar
     2    1    3 ar
     3    2    4 ar
     4    3    5 ar
     5    4    6 ar
     6    5    6 ar
     7    6   23 1
     8    7   22 1
     9    7   29 am
    10    7   35 2
    11    8    9 1
    12    8   28 1
    13    8   36 2
    14    9   33 am
    15    9   37 2
    16   10   20 1
    17   10   34 am
    18   10   38 2
    19   11   12 1
    20   11   13 1
    21   12   14 1
    22   13   15 1
    23   14   21 1
    24   15   21 1
    25   16   18 1
    26   16   20 1
    27   17   19 1
    28   17   22 1
    29   18   30 1
    30   19   30 1
    31   20   29 1
    32   21   33 1
    33   22   23 1
    34   22   31 1
    35   24   25 1
    36   24   26 1
    37   25   27 1
    38   26   28 1
    39   27   32 1
    40   28   34 1
    41   29   30 1
    42    1   39 1
    43    2   40 1
    44    3   41 1
    45    4   42 1
    46    5   43 1
    47   11   44 1
    48   11   45 1
    49   12   46 1
    50   12   47 1
    51   13   48 1
    52   13   49 1
    53   14   50 1
    54   14   51 1
    55   15   52 1
    56   15   53 1
    57   16   54 1
    58   16   55 1
    59   17   56 1
    60   17   57 1
    61   18   58 1
    62   18   59 1
    63   19   60 1
    64   19   61 1
    65   20   62 1
    66   21   63 1
    67   23   64 1
    68   23   65 1
    69   24   66 1
    70   24   67 1
    71   25   68 1
    72   25   69 1
    73   26   70 1
    74   26   71 1
    75   27   72 1
    76   27   73 1
    77   28   74 1
    78   31   75 1
    79   31   76 1
    80   32   77 1
    81   32   78 1
    82   33   79 1
    83   34   80 1
@<TRIPOS>MOLECULE
1a46_ligand_35
   80    83     0     0     0
SMALL
USER_CHARGES

mmff94s_NoEstat = 81.83
@<TRIPOS>ATOM
      1 C1          9.0003   12.0144   -5.4225 C.ar      1 <0>        -0.1300
      2 C2          9.4537   11.5665   -4.1818 C.ar      1 <0>        -0.1323
      3 C3          7.8120   11.5127   -5.9535 C.ar      1 <0>        -0.1309
      4 C4          8.7189   10.6167   -3.4722 C.ar      1 <0>        -0.1275
      5 C5          7.0772   10.5629   -5.2439 C.ar      1 <0>        -0.1272
      6 C6          7.5355   10.1211   -4.0078 C.ar      1 <0>        -0.0843
      7 C7          6.3757    6.6257   -2.8269 C.2       1 <0>         0.6709
      8 C8          5.2358    2.3798    1.5634 C.2       1 <0>         0.4867
      9 C9          4.0737    1.7586    0.8450 C.2       1 <0>         0.5883
     10 C10         6.5256    3.6321   -1.6689 C.2       1 <0>         0.6572
     11 C11        -0.3101    1.8066    3.1204 C.3       1 <0>        -0.0802
     12 C12         0.7521    0.7144    3.0271 C.3       1 <0>        -0.0765
     13 C13         0.1163    3.0793    2.3936 C.3       1 <0>        -0.0774
     14 C14         1.1457    0.4346    1.5761 C.3       1 <0>        -0.0953
     15 C15         0.5110    2.7940    0.9439 C.3       1 <0>        -0.0906
     16 C16         5.8400    3.2307   -4.0468 C.3       1 <0>        -0.0871
     17 C17         7.0291    7.4385   -5.1265 C.3       1 <0>        -0.0716
     18 C18         7.1120    3.6562   -4.7776 C.3       1 <0>         0.1333
     19 C19         6.8955    5.9616   -5.5361 C.3       1 <0>         0.1246
     20 C20         5.7868    4.1659   -2.8575 C.3       1 <0>         0.0606
     21 C21         1.5791    1.6990    0.8223 C.3       1 <0>         0.1012
     22 C22         7.1815    7.6752   -3.6055 C.3       1 <0>         0.1554
     23 C23         6.7451    9.0995   -3.2444 C.3       1 <0>        -0.0356
     24 C24         6.0158    5.3379    2.0114 C.3       1 <0>        -0.0795
     25 C25         6.7209    6.4716    2.7653 C.3       1 <0>        -0.1203
     26 C26         6.9719    4.2276    1.5544 C.3       1 <0>        -0.0920
     27 C27         5.7742    7.5909    3.1979 C.3       1 <0>         0.1502
     28 C28         6.2906    3.1130    0.7514 C.3       1 <0>         0.0224
     29 N1          6.5101    5.3360   -3.3173 N.am      1 <0>        -0.3553
     30 N2          7.3084    5.0783   -4.4472 N.3       1 <0>        -0.4320
     31 N3          8.5804    7.4980   -3.1893 N.3       1 <0>        -0.9031
     32 N4          6.5168    8.6391    3.8900 N.3       1 <0>        -0.9068
     33 N5          2.8617    2.1823    1.3384 N.am      1 <0>        -0.5526
     34 N6          5.7762    3.5917   -0.5046 N.am      1 <0>        -0.5576
     35 O1          5.6876    6.9159   -1.8485 O.2       1 <0>        -0.6710
     36 O2          5.3022    2.1819    2.7699 O.2       1 <0>        -0.4901
     37 O3          4.3127    0.9617   -0.0474 O.2       1 <0>        -0.5902
     38 O4          7.6924    3.2783   -1.7917 O.2       1 <0>        -0.5833
     39 H1          9.5724   12.7539   -5.9752 H         1 <0>         0.1320
     40 H2         10.3789   11.9573   -3.7685 H         1 <0>         0.1324
     41 H3          7.4591   11.8615   -6.9197 H         1 <0>         0.1328
     42 H4          9.0800   10.2736   -2.5062 H         1 <0>         0.1324
     43 H5          6.1526   10.1776   -5.6655 H         1 <0>         0.1434
     44 H6         -1.2478    1.4382    2.6861 H         1 <0>         0.0405
     45 H7         -0.5145    2.0336    4.1728 H         1 <0>         0.0421
     46 H8          1.6374    1.0154    3.6002 H         1 <0>         0.0362
     47 H9          0.3743   -0.2054    3.4883 H         1 <0>         0.0439
     48 H10        -0.7038    3.8062    2.4141 H         1 <0>         0.0350
     49 H11         0.9594    3.5381    2.9241 H         1 <0>         0.0428
     50 H12         1.9510   -0.3097    1.5585 H         1 <0>         0.0663
     51 H13         0.2884   -0.0125    1.0569 H         1 <0>         0.0466
     52 H14        -0.3828    2.4825    0.3884 H         1 <0>         0.0493
     53 H15         0.8670    3.7212    0.4787 H         1 <0>         0.0520
     54 H16         4.9736    3.4114   -4.6951 H         1 <0>         0.0915
     55 H17         5.8531    2.1713   -3.7729 H         1 <0>         0.0601
     56 H18         7.8805    7.8879   -5.6555 H         1 <0>         0.0688
     57 H19         6.1391    7.9685   -5.4921 H         1 <0>         0.0630
     58 H20         7.9647    3.0932   -4.3794 H         1 <0>         0.0807
     59 H21         7.0607    3.4497   -5.8523 H         1 <0>         0.0380
     60 H22         5.8545    5.7643   -5.8276 H         1 <0>         0.0484
     61 H23         7.5124    5.7838   -6.4252 H         1 <0>         0.0697
     62 H24         4.7698    4.4250   -2.5496 H         1 <0>         0.0843
     63 H25         1.7501    1.4622   -0.2331 H         1 <0>         0.0831
     64 H26         6.8700    9.2469   -2.1701 H         1 <0>         0.0704
     65 H27         5.6795    9.2080   -3.4549 H         1 <0>         0.0718
     66 H28         5.2579    4.9142    2.6804 H         1 <0>         0.0606
     67 H29         5.4809    5.7546    1.1500 H         1 <0>         0.0458
     68 H30         7.2000    6.0392    3.6534 H         1 <0>         0.0375
     69 H31         7.5258    6.8807    2.1417 H         1 <0>         0.0392
     70 H32         7.4599    3.7926    2.4354 H         1 <0>         0.0606
     71 H33         7.7645    4.6634    0.9347 H         1 <0>         0.0579
     72 H34         4.9986    7.1962    3.8630 H         1 <0>         0.0571
     73 H35         5.2784    8.0349    2.3297 H         1 <0>         0.0503
     74 H36         7.0421    2.3587    0.4881 H         1 <0>         0.0993
     75 H37         9.1142    6.7979   -3.6499 H         1 <0>         0.3700
     76 H38         8.8693    7.9327   -2.3437 H         1 <0>         0.3660
     77 H39         5.9996    9.3711    4.3277 H         1 <0>         0.3465
     78 H40         7.4997    8.7018    3.7315 H         1 <0>         0.3446
     79 H41         2.8559    2.8605    2.0944 H         1 <0>         0.3148
     80 H42         4.8120    3.9176   -0.5391 H         1 <0>         0.3220
@<TRIPOS>BOND
     1    1    2 ar
     2    1    3 ar
     3    2    4 ar
     4    3    5 ar
     5    4    6 ar
     6    5    6 ar
     7    6   23 1
     8    7   22 1
     9    7   29 am
    10    7   35 2
    11    8    9 1
    12    8   28 1
    13    8   36 2
    14    9   33 am
    15    9   37 2
    16   10   20 1
    17   10   34 am
    18   10   38 2
    19   11   12 1
    20   11   13 1
    21   12   14 1
    22   13   15 1
    23   14   21 1
    24   15   21 1
    25   16   18 1
    26   16   20 1
    27   17   19 1
    28   17   22 1
    29   18   30 1
    30   19   30 1
    31   20   29 1
    32   21   33 1
    33   22   23 1
    34   22   31 1
    35   24   25 1
    36   24   26 1
    37   25   27 1
    38   26   28 1
    39   27   32 1
    40   28   34 1
    41   29   30 1
    42    1   39 1
    43    2   40 1
    44    3   41 1
    45    4   42 1
    46    5   43 1
    47   11   44 1
    48   11   45 1
    49   12   46 1
    50   12   47 1
    51   13   48 1
    52   13   49 1
    53   14   50 1
    54   14   51 1
    55   15   52 1
    56   15   53 1
    57   16   54 1
    58   16   55 1
    59   17   56 1
    60   17   57 1
    61   18   58 1
    62   18   59 1
    63   19   60 1
    64   19   61 1
    65   20   62 1
    66   21   63 1
    67   23   64 1
    68   23   65 1
    69   24   66 1
    70   24   67 1
    71   25   68 1
    72   25   69 1
    73   26   70 1
    74   26   71 1
    75   27   72 1
    76   27   73 1
    77   28   74 1
    78   31   75 1
    79   31   76 1
    80   32   77 1
    81   32   78 1
    82   33   79 1
    83   34   80 1
@<TRIPOS>MOLECULE
1a46_ligand_36
   80    83     0     0     0
SMALL
USER_CHARGES

mmff94s_NoEstat = 81.84
@<TRIPOS>ATOM
      1 C1          9.1717   11.5998   -4.8818 C.ar      1 <0>        -0.1300
      2 C2          9.5642   11.0570   -3.6583 C.ar      1 <0>        -0.1323
      3 C3          7.9808   11.1858   -5.4786 C.ar      1 <0>        -0.1309
      4 C4          8.7658   10.1002   -3.0316 C.ar      1 <0>        -0.1275
      5 C5          7.1825   10.2289   -4.8519 C.ar      1 <0>        -0.1272
      6 C6          7.5802    9.6924   -3.6325 C.ar      1 <0>        -0.0843
      7 C7          6.2313    6.1878   -2.7072 C.2       1 <0>         0.6709
      8 C8          5.2358    2.3798    1.5634 C.2       1 <0>         0.4867
      9 C9          4.0737    1.7586    0.8450 C.2       1 <0>         0.5883
     10 C10         6.2126    3.1256   -1.7338 C.2       1 <0>         0.6572
     11 C11        -0.4193    3.6035    1.7432 C.3       1 <0>        -0.0802
     12 C12         0.2923    2.3853    2.3260 C.3       1 <0>        -0.0765
     13 C13         0.4577    4.3505    0.7419 C.3       1 <0>        -0.0774
     14 C14         0.8140    1.4591    1.2267 C.3       1 <0>        -0.0953
     15 C15         0.9788    3.4196   -0.3539 C.3       1 <0>        -0.0906
     16 C16         5.5888    2.9013   -4.1517 C.3       1 <0>        -0.0871
     17 C17         6.9946    7.1086   -4.9309 C.3       1 <0>        -0.0716
     18 C18         6.9015    3.3122   -4.8158 C.3       1 <0>         0.1333
     19 C19         6.8105    5.6670   -5.4355 C.3       1 <0>         0.1246
     20 C20         5.5372    3.7637   -2.9085 C.3       1 <0>         0.0606
     21 C21         1.6997    2.1861    0.2060 C.3       1 <0>         0.1012
     22 C22         7.1071    7.2451   -3.3942 C.3       1 <0>         0.1554
     23 C23         6.7215    8.6631   -2.9584 C.3       1 <0>        -0.0356
     24 C24         8.0800    4.9598    0.7851 C.3       1 <0>        -0.0795
     25 C25         8.7880    6.0338    1.6192 C.3       1 <0>        -0.1203
     26 C26         6.9719    4.2276    1.5544 C.3       1 <0>        -0.0920
     27 C27         9.9095    6.7454    0.8629 C.3       1 <0>         0.1502
     28 C28         6.2906    3.1130    0.7514 C.3       1 <0>         0.0224
     29 N1          6.3255    4.9256   -3.2726 N.am      1 <0>        -0.3553
     30 N2          7.1486    4.7012   -4.3918 N.3       1 <0>        -0.4320
     31 N3          8.4826    6.9796   -2.9479 N.3       1 <0>        -0.9031
     32 N4         10.5470    7.7366    1.7233 N.3       1 <0>        -0.9068
     33 N5          2.9687    2.5774    0.8237 N.am      1 <0>        -0.5526
     34 N6          5.7762    3.5917   -0.5046 N.am      1 <0>        -0.5576
     35 O1          5.5247    6.4489   -1.7337 O.2       1 <0>        -0.6710
     36 O2          5.3022    2.1819    2.7699 O.2       1 <0>        -0.4901
     37 O3          4.2153    0.6340    0.3935 O.2       1 <0>        -0.5902
     38 O4          7.0689    2.2691   -1.9210 O.2       1 <0>        -0.5833
     39 H1          9.7933   12.3448   -5.3699 H         1 <0>         0.1320
     40 H2         10.4914   11.3794   -3.1938 H         1 <0>         0.1324
     41 H3          7.6754   11.6084   -6.4314 H         1 <0>         0.1328
     42 H4          9.0796    9.6828   -2.0785 H         1 <0>         0.1324
     43 H5          6.2564    9.9124   -5.3244 H         1 <0>         0.1434
     44 H6         -1.3424    3.2805    1.2460 H         1 <0>         0.0405
     45 H7         -0.7142    4.2808    2.5526 H         1 <0>         0.0421
     46 H8          1.1249    2.7162    2.9585 H         1 <0>         0.0362
     47 H9         -0.3974    1.8327    2.9743 H         1 <0>         0.0439
     48 H10        -0.1164    5.1662    0.2877 H         1 <0>         0.0350
     49 H11         1.3017    4.8123    1.2685 H         1 <0>         0.0428
     50 H12         1.3688    0.6319    1.6861 H         1 <0>         0.0663
     51 H13        -0.0418    1.0151    0.7025 H         1 <0>         0.0466
     52 H14         0.1324    3.0884   -0.9690 H         1 <0>         0.0493
     53 H15         1.6506    3.9815   -1.0141 H         1 <0>         0.0520
     54 H16         4.7529    3.1603   -4.8133 H         1 <0>         0.0915
     55 H17         5.5468    1.8277   -3.9440 H         1 <0>         0.0601
     56 H18         7.8817    7.5503   -5.4050 H         1 <0>         0.0688
     57 H19         6.1410    7.6997   -5.2894 H         1 <0>         0.0630
     58 H20         7.7153    2.6878   -4.4279 H         1 <0>         0.0807
     59 H21         6.8766    3.1741   -5.9024 H         1 <0>         0.0380
     60 H22         5.7721    5.5353   -5.7700 H         1 <0>         0.0484
     61 H23         7.4480    5.5158   -6.3149 H         1 <0>         0.0697
     62 H24         4.5229    4.0496   -2.6159 H         1 <0>         0.0843
     63 H25         1.9606    1.5054   -0.6111 H         1 <0>         0.0831
     64 H26         6.8173    8.7391   -1.8738 H         1 <0>         0.0704
     65 H27         5.6691    8.8325   -3.1938 H         1 <0>         0.0718
     66 H28         7.6494    5.4516   -0.0948 H         1 <0>         0.0606
     67 H29         8.8216    4.2418    0.4157 H         1 <0>         0.0458
     68 H30         8.0356    6.7709    1.9287 H         1 <0>         0.0375
     69 H31         9.1825    5.5824    2.5383 H         1 <0>         0.0392
     70 H32         6.2171    4.9575    1.8728 H         1 <0>         0.0606
     71 H33         7.3929    3.7874    2.4660 H         1 <0>         0.0579
     72 H34         9.5108    7.2416   -0.0285 H         1 <0>         0.0571
     73 H35        10.6706    6.0303    0.5375 H         1 <0>         0.0503
     74 H36         7.0421    2.3587    0.4881 H         1 <0>         0.0993
     75 H37         9.0003    6.2852   -3.4348 H         1 <0>         0.3700
     76 H38         8.7621    7.3483   -2.0685 H         1 <0>         0.3660
     77 H39        11.2163    8.3531    1.3147 H         1 <0>         0.3465
     78 H40        10.4498    7.6340    2.7108 H         1 <0>         0.3446
     79 H41         3.0357    3.4942    1.2556 H         1 <0>         0.3148
     80 H42         5.0545    4.3100   -0.4888 H         1 <0>         0.3220
@<TRIPOS>BOND
     1    1    2 ar
     2    1    3 ar
     3    2    4 ar
     4    3    5 ar
     5    4    6 ar
     6    5    6 ar
     7    6   23 1
     8    7   22 1
     9    7   29 am
    10    7   35 2
    11    8    9 1
    12    8   28 1
    13    8   36 2
    14    9   33 am
    15    9   37 2
    16   10   20 1
    17   10   34 am
    18   10   38 2
    19   11   12 1
    20   11   13 1
    21   12   14 1
    22   13   15 1
    23   14   21 1
    24   15   21 1
    25   16   18 1
    26   16   20 1
    27   17   19 1
    28   17   22 1
    29   18   30 1
    30   19   30 1
    31   20   29 1
    32   21   33 1
    33   22   23 1
    34   22   31 1
    35   24   25 1
    36   24   26 1
    37   25   27 1
    38   26   28 1
    39   27   32 1
    40   28   34 1
    41   29   30 1
    42    1   39 1
    43    2   40 1
    44    3   41 1
    45    4   42 1
    46    5   43 1
    47   11   44 1
    48   11   45 1
    49   12   46 1
    50   12   47 1
    51   13   48 1
    52   13   49 1
    53   14   50 1
    54   14   51 1
    55   15   52 1
    56   15   53 1
    57   16   54 1
    58   16   55 1
    59   17   56 1
    60   17   57 1
    61   18   58 1
    62   18   59 1
    63   19   60 1
    64   19   61 1
    65   20   62 1
    66   21   63 1
    67   23   64 1
    68   23   65 1
    69   24   66 1
    70   24   67 1
    71   25   68 1
    72   25   69 1
    73   26   70 1
    74   26   71 1
    75   27   72 1
    76   27   73 1
    77   28   74 1
    78   31   75 1
    79   31   76 1
    80   32   77 1
    81   32   78 1
    82   33   79 1
    83   34   80 1
@<TRIPOS>MOLECULE
1a46_ligand_37
   80    83     0     0     0
SMALL
USER_CHARGES

mmff94s_NoEstat = 81.88
@<TRIPOS>ATOM
      1 C1         11.1945    5.3647   -9.7731 C.ar      1 <0>        -0.1300
      2 C2         11.8337    5.1154   -8.5586 C.ar      1 <0>        -0.1323
      3 C3          9.8873    5.8513   -9.7863 C.ar      1 <0>        -0.1309
      4 C4         11.1656    5.3526   -7.3573 C.ar      1 <0>        -0.1275
      5 C5          9.2192    6.0884   -8.5850 C.ar      1 <0>        -0.1272
      6 C6          9.8628    5.8375   -7.3783 C.ar      1 <0>        -0.0843
      7 C7          7.6425    5.1042   -4.2977 C.2       1 <0>         0.6709
      8 C8          5.2358    2.3798    1.5634 C.2       1 <0>         0.4867
      9 C9          5.6457    1.7076    2.8411 C.2       1 <0>         0.5883
     10 C10         6.5256    3.6321   -1.6689 C.2       1 <0>         0.6572
     11 C11         7.4984   -2.8604    2.5281 C.3       1 <0>        -0.0802
     12 C12         6.0870   -2.3778    2.8521 C.3       1 <0>        -0.0765
     13 C13         8.4450   -1.6988    2.2377 C.3       1 <0>        -0.0774
     14 C14         6.0898   -1.3509    3.9853 C.3       1 <0>        -0.0953
     15 C15         8.4424   -0.6737    3.3726 C.3       1 <0>        -0.0906
     16 C16         4.6595    3.2577   -3.3009 C.3       1 <0>        -0.0871
     17 C17         7.3760    4.3986   -6.7074 C.3       1 <0>        -0.0716
     18 C18         5.3367    2.3027   -4.2819 C.3       1 <0>         0.1333
     19 C19         6.2012    3.5529   -6.1864 C.3       1 <0>         0.1246
     20 C20         5.7868    4.1659   -2.8575 C.3       1 <0>         0.0606
     21 C21         7.0342   -0.1713    3.7178 C.3       1 <0>         0.1012
     22 C22         8.3797    4.8486   -5.6198 C.3       1 <0>         0.1554
     23 C23         9.1441    6.0926   -6.0861 C.3       1 <0>        -0.0356
     24 C24         6.0158    5.3379    2.0114 C.3       1 <0>        -0.0795
     25 C25         6.7209    6.4716    2.7653 C.3       1 <0>        -0.1203
     26 C26         6.9719    4.2276    1.5544 C.3       1 <0>        -0.0920
     27 C27         5.7742    7.5909    3.1979 C.3       1 <0>         0.1502
     28 C28         6.2906    3.1130    0.7514 C.3       1 <0>         0.0224
     29 N1          6.7058    4.1331   -3.9791 N.am      1 <0>        -0.3553
     30 N2          6.4777    3.0462   -4.8435 N.3       1 <0>        -0.4320
     31 N3          9.3531    3.7833   -5.3380 N.3       1 <0>        -0.9031
     32 N4          6.5168    8.6391    3.8900 N.3       1 <0>        -0.9068
     33 N5          6.5118    0.6599    2.6310 N.am      1 <0>        -0.5526
     34 N6          5.7762    3.5917   -0.5046 N.am      1 <0>        -0.5576
     35 O1          7.8821    6.0807   -3.5877 O.2       1 <0>        -0.6710
     36 O2          4.0412    2.3628    1.2952 O.2       1 <0>        -0.4901
     37 O3          5.1730    2.1266    3.8850 O.2       1 <0>        -0.5902
     38 O4          7.6924    3.2783   -1.7917 O.2       1 <0>        -0.5833
     39 H1         11.7147    5.1800  -10.7084 H         1 <0>         0.1320
     40 H2         12.8515    4.7366   -8.5485 H         1 <0>         0.1324
     41 H3          9.3897    6.0452  -10.7320 H         1 <0>         0.1328
     42 H4         11.6716    5.1554   -6.4159 H         1 <0>         0.1324
     43 H5          8.2009    6.4675   -8.6050 H         1 <0>         0.1434
     44 H6          7.8861   -3.4409    3.3744 H         1 <0>         0.0405
     45 H7          7.4684   -3.5363    1.6660 H         1 <0>         0.0421
     46 H8          5.6358   -1.9383    1.9543 H         1 <0>         0.0362
     47 H9          5.4623   -3.2331    3.1340 H         1 <0>         0.0439
     48 H10         9.4616   -2.0812    2.0913 H         1 <0>         0.0350
     49 H11         8.1510   -1.2136    1.2991 H         1 <0>         0.0428
     50 H12         5.0674   -0.9870    4.1440 H         1 <0>         0.0663
     51 H13         6.3973   -1.8492    4.9135 H         1 <0>         0.0466
     52 H14         8.8852   -1.1330    4.2655 H         1 <0>         0.0493
     53 H15         9.0866    0.1701    3.0968 H         1 <0>         0.0520
     54 H16         3.9023    3.8458   -3.8340 H         1 <0>         0.0915
     55 H17         4.1709    2.7289   -2.4768 H         1 <0>         0.0601
     56 H18         7.9078    3.8408   -7.4902 H         1 <0>         0.0688
     57 H19         6.9559    5.2827   -7.2061 H         1 <0>         0.0630
     58 H20         5.7303    1.4383   -3.7336 H         1 <0>         0.0807
     59 H21         4.6390    1.9190   -5.0344 H         1 <0>         0.0380
     60 H22         5.2889    4.1652   -6.1941 H         1 <0>         0.0484
     61 H23         6.0298    2.7205   -6.8794 H         1 <0>         0.0697
     62 H24         5.4651    5.1881   -2.6391 H         1 <0>         0.0843
     63 H25         7.0767    0.4778    4.5987 H         1 <0>         0.0831
     64 H26         9.8520    6.3858   -5.3087 H         1 <0>         0.0704
     65 H27         8.4405    6.9195   -6.1990 H         1 <0>         0.0718
     66 H28         5.2579    4.9142    2.6804 H         1 <0>         0.0606
     67 H29         5.4809    5.7546    1.1500 H         1 <0>         0.0458
     68 H30         7.2000    6.0392    3.6534 H         1 <0>         0.0375
     69 H31         7.5258    6.8807    2.1417 H         1 <0>         0.0392
     70 H32         7.4599    3.7926    2.4354 H         1 <0>         0.0606
     71 H33         7.7645    4.6634    0.9347 H         1 <0>         0.0579
     72 H34         4.9986    7.1962    3.8630 H         1 <0>         0.0571
     73 H35         5.2784    8.0349    2.3297 H         1 <0>         0.0503
     74 H36         7.0421    2.3587    0.4881 H         1 <0>         0.0993
     75 H37         9.0331    2.8434   -5.3754 H         1 <0>         0.3700
     76 H38        10.2196    4.0460   -4.9287 H         1 <0>         0.3660
     77 H39         5.9996    9.3711    4.3277 H         1 <0>         0.3465
     78 H40         7.4997    8.7018    3.7315 H         1 <0>         0.3446
     79 H41         6.8020    0.4535    1.6799 H         1 <0>         0.3148
     80 H42         4.8120    3.9176   -0.5391 H         1 <0>         0.3220
@<TRIPOS>BOND
     1    1    2 ar
     2    1    3 ar
     3    2    4 ar
     4    3    5 ar
     5    4    6 ar
     6    5    6 ar
     7    6   23 1
     8    7   22 1
     9    7   29 am
    10    7   35 2
    11    8    9 1
    12    8   28 1
    13    8   36 2
    14    9   33 am
    15    9   37 2
    16   10   20 1
    17   10   34 am
    18   10   38 2
    19   11   12 1
    20   11   13 1
    21   12   14 1
    22   13   15 1
    23   14   21 1
    24   15   21 1
    25   16   18 1
    26   16   20 1
    27   17   19 1
    28   17   22 1
    29   18   30 1
    30   19   30 1
    31   20   29 1
    32   21   33 1
    33   22   23 1
    34   22   31 1
    35   24   25 1
    36   24   26 1
    37   25   27 1
    38   26   28 1
    39   27   32 1
    40   28   34 1
    41   29   30 1
    42    1   39 1
    43    2   40 1
    44    3   41 1
    45    4   42 1
    46    5   43 1
    47   11   44 1
    48   11   45 1
    49   12   46 1
    50   12   47 1
    51   13   48 1
    52   13   49 1
    53   14   50 1
    54   14   51 1
    55   15   52 1
    56   15   53 1
    57   16   54 1
    58   16   55 1
    59   17   56 1
    60   17   57 1
    61   18   58 1
    62   18   59 1
    63   19   60 1
    64   19   61 1
    65   20   62 1
    66   21   63 1
    67   23   64 1
    68   23   65 1
    69   24   66 1
    70   24   67 1
    71   25   68 1
    72   25   69 1
    73   26   70 1
    74   26   71 1
    75   27   72 1
    76   27   73 1
    77   28   74 1
    78   31   75 1
    79   31   76 1
    80   32   77 1
    81   32   78 1
    82   33   79 1
    83   34   80 1
@<TRIPOS>MOLECULE
1a46_ligand_38
   80    83     0     0     0
SMALL
USER_CHARGES

mmff94s_NoEstat = 81.93
@<TRIPOS>ATOM
      1 C1         -6.8775    5.0901  -14.7309 C.ar      1 <0>        -0.1300
      2 C2         -5.5917    5.6294  -14.7709 C.ar      1 <0>        -0.1323
      3 C3         -7.3842    4.5832  -13.5342 C.ar      1 <0>        -0.1309
      4 C4         -4.8126    5.6616  -13.6144 C.ar      1 <0>        -0.1275
      5 C5         -6.6051    4.6154  -12.3777 C.ar      1 <0>        -0.1272
      6 C6         -5.3244    5.1544  -12.4253 C.ar      1 <0>        -0.0843
      7 C7         -2.7863    3.9453   -9.7694 C.2       1 <0>         0.6709
      8 C8          2.7796    3.2097   -6.1637 C.2       1 <0>         0.4867
      9 C9          2.2829    2.0299   -5.3801 C.2       1 <0>         0.5883
     10 C10        -0.0591    2.8141   -8.5012 C.2       1 <0>         0.6572
     11 C11        -0.0952    0.7327   -0.7029 C.3       1 <0>        -0.0802
     12 C12         1.2544    0.2267   -1.2045 C.3       1 <0>        -0.0765
     13 C13        -1.0596    1.0010   -1.8548 C.3       1 <0>        -0.0774
     14 C14         1.8632    1.1742   -2.2367 C.3       1 <0>        -0.0953
     15 C15        -0.4535    1.9500   -2.8873 C.3       1 <0>        -0.0906
     16 C16        -1.6498    0.9246   -8.0710 C.3       1 <0>        -0.0871
     17 C17        -4.5618    2.6685  -11.0314 C.3       1 <0>        -0.0716
     18 C18        -1.8952    0.4385   -9.4981 C.3       1 <0>         0.1333
     19 C19        -3.9477    1.4257  -10.3641 C.3       1 <0>         0.1246
     20 C20        -1.4789    2.4202   -8.2321 C.3       1 <0>         0.0606
     21 C21         0.8958    1.4320   -3.3972 C.3       1 <0>         0.1012
     22 C22        -3.6459    3.9150  -11.0410 C.3       1 <0>         0.1554
     23 C23        -4.4863    5.1891  -11.1812 C.3       1 <0>        -0.0356
     24 C24         1.5857    6.0302   -6.5865 C.3       1 <0>        -0.0795
     25 C25         1.6811    7.5259   -6.9095 C.3       1 <0>        -0.1203
     26 C26         2.1570    5.1335   -7.6933 C.3       1 <0>        -0.0920
     27 C27         1.0885    8.4192   -5.8200 C.3       1 <0>         0.1502
     28 C28         2.0196    3.6328   -7.4097 C.3       1 <0>         0.0224
     29 N1         -2.2374    2.7178   -9.4321 N.am      1 <0>        -0.3553
     30 N2         -2.5018    1.5760  -10.2111 N.3       1 <0>        -0.4320
     31 N3         -2.6997    3.8562  -12.1647 N.3       1 <0>        -0.9031
     32 N4          1.8018    8.2205   -4.5627 N.3       1 <0>        -0.9068
     33 N5          1.4800    2.3978   -4.3257 N.am      1 <0>        -0.5526
     34 N6          0.6426    3.2153   -7.3763 N.am      1 <0>        -0.5576
     35 O1         -2.5986    4.9773   -9.1254 O.2       1 <0>        -0.6710
     36 O2          3.8302    3.7133   -5.7870 O.2       1 <0>        -0.4901
     37 O3          2.6437    0.9181   -5.7301 O.2       1 <0>        -0.5902
     38 O4          0.3766    2.7593   -9.6452 O.2       1 <0>        -0.5833
     39 H1         -7.4841    5.0650  -15.6314 H         1 <0>         0.1320
     40 H2         -5.1973    6.0241  -15.7027 H         1 <0>         0.1324
     41 H3         -8.3853    4.1632  -13.5032 H         1 <0>         0.1328
     42 H4         -3.8120    6.0837  -13.6551 H         1 <0>         0.1324
     43 H5         -7.0082    4.2181  -11.4499 H         1 <0>         0.1434
     44 H6         -0.5335   -0.0026   -0.0187 H         1 <0>         0.0405
     45 H7          0.0526    1.6558   -0.1291 H         1 <0>         0.0421
     46 H8          1.9422    0.1116   -0.3592 H         1 <0>         0.0362
     47 H9          1.1287   -0.7669   -1.6521 H         1 <0>         0.0439
     48 H10        -1.3217    0.0532   -2.3408 H         1 <0>         0.0350
     49 H11        -1.9903    1.4277   -1.4641 H         1 <0>         0.0428
     50 H12         2.1267    2.1226   -1.7501 H         1 <0>         0.0663
     51 H13         2.8005    0.7504   -2.6175 H         1 <0>         0.0466
     52 H14        -1.1488    2.0728   -3.7266 H         1 <0>         0.0493
     53 H15        -0.3286    2.9446   -2.4393 H         1 <0>         0.0520
     54 H16        -2.5391    0.7200   -7.4620 H         1 <0>         0.0915
     55 H17        -0.7905    0.4314   -7.6064 H         1 <0>         0.0601
     56 H18        -4.8571    2.4214  -12.0603 H         1 <0>         0.0688
     57 H19        -5.4956    2.9043  -10.5031 H         1 <0>         0.0630
     58 H20        -0.9338    0.2117   -9.9745 H         1 <0>         0.0807
     59 H21        -2.4949   -0.4779   -9.5259 H         1 <0>         0.0380
     60 H22        -4.4307    1.2677   -9.3899 H         1 <0>         0.0484
     61 H23        -4.1761    0.5456  -10.9773 H         1 <0>         0.0697
     62 H24        -1.8462    2.9971   -7.3786 H         1 <0>         0.0843
     63 H25         0.7468    0.5082   -3.9681 H         1 <0>         0.0831
     64 H26        -3.8200    6.0535  -11.1955 H         1 <0>         0.0704
     65 H27        -5.1199    5.2949  -10.2986 H         1 <0>         0.0718
     66 H28         2.1358    5.8550   -5.6547 H         1 <0>         0.0606
     67 H29         0.5392    5.7688   -6.3906 H         1 <0>         0.0458
     68 H30         2.7419    7.7748   -7.0444 H         1 <0>         0.0375
     69 H31         1.1870    7.7255   -7.8687 H         1 <0>         0.0392
     70 H32         3.2164    5.3787   -7.8393 H         1 <0>         0.0606
     71 H33         1.6466    5.3535   -8.6384 H         1 <0>         0.0579
     72 H34         0.0275    8.1885   -5.6755 H         1 <0>         0.0571
     73 H35         1.1682    9.4739   -6.0992 H         1 <0>         0.0503
     74 H36         2.4714    3.0747   -8.2388 H         1 <0>         0.0993
     75 H37        -2.3461    2.9648  -12.4248 H         1 <0>         0.3700
     76 H38        -2.3015    4.7109  -12.4784 H         1 <0>         0.3660
     77 H39         1.4387    8.6562   -3.7421 H         1 <0>         0.3465
     78 H40         2.7216    7.8360   -4.5996 H         1 <0>         0.3446
     79 H41         1.2844    3.3846   -4.1861 H         1 <0>         0.3148
     80 H42         0.1596    3.2148   -6.4798 H         1 <0>         0.3220
@<TRIPOS>BOND
     1    1    2 ar
     2    1    3 ar
     3    2    4 ar
     4    3    5 ar
     5    4    6 ar
     6    5    6 ar
     7    6   23 1
     8    7   22 1
     9    7   29 am
    10    7   35 2
    11    8    9 1
    12    8   28 1
    13    8   36 2
    14    9   33 am
    15    9   37 2
    16   10   20 1
    17   10   34 am
    18   10   38 2
    19   11   12 1
    20   11   13 1
    21   12   14 1
    22   13   15 1
    23   14   21 1
    24   15   21 1
    25   16   18 1
    26   16   20 1
    27   17   19 1
    28   17   22 1
    29   18   30 1
    30   19   30 1
    31   20   29 1
    32   21   33 1
    33   22   23 1
    34   22   31 1
    35   24   25 1
    36   24   26 1
    37   25   27 1
    38   26   28 1
    39   27   32 1
    40   28   34 1
    41   29   30 1
    42    1   39 1
    43    2   40 1
    44    3   41 1
    45    4   42 1
    46    5   43 1
    47   11   44 1
    48   11   45 1
    49   12   46 1
    50   12   47 1
    51   13   48 1
    52   13   49 1
    53   14   50 1
    54   14   51 1
    55   15   52 1
    56   15   53 1
    57   16   54 1
    58   16   55 1
    59   17   56 1
    60   17   57 1
    61   18   58 1
    62   18   59 1
    63   19   60 1
    64   19   61 1
    65   20   62 1
    66   21   63 1
    67   23   64 1
    68   23   65 1
    69   24   66 1
    70   24   67 1
    71   25   68 1
    72   25   69 1
    73   26   70 1
    74   26   71 1
    75   27   72 1
    76   27   73 1
    77   28   74 1
    78   31   75 1
    79   31   76 1
    80   32   77 1
    81   32   78 1
    82   33   79 1
    83   34   80 1
@<TRIPOS>MOLECULE
1a46_ligand_39
   80    83     0     0     0
SMALL
USER_CHARGES

mmff94s_NoEstat = 82.03
@<TRIPOS>ATOM
      1 C1         11.2307    8.4980   -6.9074 C.ar      1 <0>        -0.1300
      2 C2         11.6037    8.0134   -5.6538 C.ar      1 <0>        -0.1323
      3 C3          9.8807    8.5885   -7.2468 C.ar      1 <0>        -0.1309
      4 C4         10.6268    7.6193   -4.7395 C.ar      1 <0>        -0.1275
      5 C5          8.9038    8.1943   -6.3325 C.ar      1 <0>        -0.1272
      6 C6          9.2832    7.7123   -5.0848 C.ar      1 <0>        -0.0843
      7 C7          6.8112    5.3648   -3.2584 C.2       1 <0>         0.6709
      8 C8          5.2358    2.3798    1.5634 C.2       1 <0>         0.4867
      9 C9          3.8230    2.3549    1.0577 C.2       1 <0>         0.5883
     10 C10         5.7098    2.8119   -1.6475 C.2       1 <0>         0.6572
     11 C11         1.4181    6.7678    0.8940 C.3       1 <0>        -0.0802
     12 C12         1.4560    5.8610    2.1213 C.3       1 <0>        -0.0765
     13 C13         2.2461    6.2031   -0.2573 C.3       1 <0>        -0.0774
     14 C14         1.0454    4.4289    1.7758 C.3       1 <0>        -0.0953
     15 C15         1.8333    4.7703   -0.5974 C.3       1 <0>        -0.0906
     16 C16         4.5614    2.5584   -3.8616 C.3       1 <0>        -0.0871
     17 C17         7.4096    5.5196   -5.7065 C.3       1 <0>        -0.0716
     18 C18         5.7552    2.2338   -4.7574 C.3       1 <0>         0.1333
     19 C19         6.5359    4.2626   -5.8584 C.3       1 <0>         0.1246
     20 C20         5.1372    3.5153   -2.8394 C.3       1 <0>         0.0606
     21 C21         1.8637    3.8371    0.6204 C.3       1 <0>         0.1012
     22 C22         7.8862    5.8039   -4.2626 C.3       1 <0>         0.1554
     23 C23         8.2324    7.2883   -4.1013 C.3       1 <0>        -0.0356
     24 C24         8.0800    4.9598    0.7851 C.3       1 <0>        -0.0795
     25 C25         8.7880    6.0338    1.6192 C.3       1 <0>        -0.1203
     26 C26         6.9719    4.2276    1.5544 C.3       1 <0>        -0.0920
     27 C27         9.9095    6.7454    0.8629 C.3       1 <0>         0.1502
     28 C28         6.2906    3.1130    0.7514 C.3       1 <0>         0.0224
     29 N1          6.2461    4.1312   -3.5428 N.am      1 <0>        -0.3553
     30 N2          6.6457    3.4048   -4.6800 N.3       1 <0>        -0.4320
     31 N3          9.0821    5.0103   -3.9441 N.3       1 <0>        -0.9031
     32 N4          9.3732    7.4215   -0.3138 N.3       1 <0>        -0.9068
     33 N5          3.2455    3.6032    1.0456 N.am      1 <0>        -0.5526
     34 N6          5.7762    3.5917   -0.5046 N.am      1 <0>        -0.5576
     35 O1          6.4995    6.0504   -2.2848 O.2       1 <0>        -0.6710
     36 O2          5.4669    1.7271    2.5732 O.2       1 <0>        -0.4901
     37 O3          3.3466    1.2762    0.7444 O.2       1 <0>        -0.5902
     38 O4          6.0670    1.6440   -1.7490 O.2       1 <0>        -0.5833
     39 H1         11.9913    8.8048   -7.6194 H         1 <0>         0.1320
     40 H2         12.6548    7.9430   -5.3897 H         1 <0>         0.1324
     41 H3          9.5904    8.9656   -8.2230 H         1 <0>         0.1328
     42 H4         10.9268    7.2430   -3.7651 H         1 <0>         0.1324
     43 H5          7.8545    8.2683   -6.6056 H         1 <0>         0.1434
     44 H6          0.3784    6.8907    0.5662 H         1 <0>         0.0405
     45 H7          1.7877    7.7645    1.1601 H         1 <0>         0.0421
     46 H8          2.4665    5.8646    2.5474 H         1 <0>         0.0362
     47 H9          0.7860    6.2585    2.8922 H         1 <0>         0.0439
     48 H10         2.1267    6.8389   -1.1420 H         1 <0>         0.0350
     49 H11         3.3094    6.2291    0.0101 H         1 <0>         0.0428
     50 H12         1.1447    3.8004    2.6691 H         1 <0>         0.0663
     51 H13        -0.0166    4.4224    1.4992 H         1 <0>         0.0466
     52 H14         0.8166    4.7834   -1.0104 H         1 <0>         0.0493
     53 H15         2.4912    4.3837   -1.3851 H         1 <0>         0.0520
     54 H16         3.7944    3.0721   -4.4543 H         1 <0>         0.0915
     55 H17         4.1162    1.6608   -3.4217 H         1 <0>         0.0601
     56 H18         8.2801    5.4412   -6.3721 H         1 <0>         0.0688
     57 H19         6.8297    6.3763   -6.0759 H         1 <0>         0.0630
     58 H20         6.2922    1.3700   -4.3474 H         1 <0>         0.0807
     59 H21         5.4490    1.9715   -5.7762 H         1 <0>         0.0380
     60 H22         5.4939    4.5694   -6.0242 H         1 <0>         0.0484
     61 H23         6.8523    3.7181   -6.7562 H         1 <0>         0.0697
     62 H24         4.4225    4.2667   -2.4920 H         1 <0>         0.0843
     63 H25         1.4635    2.8554    0.3463 H         1 <0>         0.0831
     64 H26         8.5747    7.4635   -3.0797 H         1 <0>         0.0704
     65 H27         7.3253    7.8806   -4.2350 H         1 <0>         0.0718
     66 H28         7.6494    5.4516   -0.0948 H         1 <0>         0.0606
     67 H29         8.8216    4.2418    0.4157 H         1 <0>         0.0458
     68 H30         8.0356    6.7709    1.9287 H         1 <0>         0.0375
     69 H31         9.1825    5.5824    2.5383 H         1 <0>         0.0392
     70 H32         6.2171    4.9575    1.8728 H         1 <0>         0.0606
     71 H33         7.3929    3.7874    2.4660 H         1 <0>         0.0579
     72 H34        10.6735    6.0252    0.5509 H         1 <0>         0.0571
     73 H35        10.3920    7.4923    1.5001 H         1 <0>         0.0503
     74 H36         7.0421    2.3587    0.4881 H         1 <0>         0.0993
     75 H37         9.1461    4.0964   -4.3289 H         1 <0>         0.3700
     76 H38         9.6671    5.3316   -3.2079 H         1 <0>         0.3660
     77 H39        10.0182    7.8250   -0.9589 H         1 <0>         0.3465
     78 H40         8.3988    7.6342   -0.3305 H         1 <0>         0.3446
     79 H41         3.8022    4.3983    1.3448 H         1 <0>         0.3148
     80 H42         5.4441    4.5531   -0.5557 H         1 <0>         0.3220
@<TRIPOS>BOND
     1    1    2 ar
     2    1    3 ar
     3    2    4 ar
     4    3    5 ar
     5    4    6 ar
     6    5    6 ar
     7    6   23 1
     8    7   22 1
     9    7   29 am
    10    7   35 2
    11    8    9 1
    12    8   28 1
    13    8   36 2
    14    9   33 am
    15    9   37 2
    16   10   20 1
    17   10   34 am
    18   10   38 2
    19   11   12 1
    20   11   13 1
    21   12   14 1
    22   13   15 1
    23   14   21 1
    24   15   21 1
    25   16   18 1
    26   16   20 1
    27   17   19 1
    28   17   22 1
    29   18   30 1
    30   19   30 1
    31   20   29 1
    32   21   33 1
    33   22   23 1
    34   22   31 1
    35   24   25 1
    36   24   26 1
    37   25   27 1
    38   26   28 1
    39   27   32 1
    40   28   34 1
    41   29   30 1
    42    1   39 1
    43    2   40 1
    44    3   41 1
    45    4   42 1
    46    5   43 1
    47   11   44 1
    48   11   45 1
    49   12   46 1
    50   12   47 1
    51   13   48 1
    52   13   49 1
    53   14   50 1
    54   14   51 1
    55   15   52 1
    56   15   53 1
    57   16   54 1
    58   16   55 1
    59   17   56 1
    60   17   57 1
    61   18   58 1
    62   18   59 1
    63   19   60 1
    64   19   61 1
    65   20   62 1
    66   21   63 1
    67   23   64 1
    68   23   65 1
    69   24   66 1
    70   24   67 1
    71   25   68 1
    72   25   69 1
    73   26   70 1
    74   26   71 1
    75   27   72 1
    76   27   73 1
    77   28   74 1
    78   31   75 1
    79   31   76 1
    80   32   77 1
    81   32   78 1
    82   33   79 1
    83   34   80 1
@<TRIPOS>MOLECULE
1a46_ligand_40
   80    83     0     0     0
SMALL
USER_CHARGES

mmff94s_NoEstat = 82.03
@<TRIPOS>ATOM
      1 C1          5.9504   -1.3642  -10.1903 C.ar      1 <0>        -0.1300
      2 C2          6.6765   -1.8241   -9.0918 C.ar      1 <0>        -0.1323
      3 C3          5.5463   -0.0305  -10.2504 C.ar      1 <0>        -0.1309
      4 C4          6.9984   -0.9504   -8.0532 C.ar      1 <0>        -0.1275
      5 C5          5.8681    0.8432   -9.2119 C.ar      1 <0>        -0.1272
      6 C6          6.5921    0.3776   -8.1201 C.ar      1 <0>        -0.0843
      7 C7          6.1974    2.2868   -4.7798 C.2       1 <0>         0.6709
      8 C8          5.2358    2.3798    1.5634 C.2       1 <0>         0.4867
      9 C9          5.6522    1.1980    2.3894 C.2       1 <0>         0.5883
     10 C10         5.7098    2.8119   -1.6475 C.2       1 <0>         0.6572
     11 C11         8.5733   -2.2013    0.3137 C.3       1 <0>        -0.0802
     12 C12         7.0878   -2.2472   -0.0344 C.3       1 <0>        -0.0765
     13 C13         8.9012   -1.0498    1.2605 C.3       1 <0>        -0.0774
     14 C14         6.2162   -2.2794    1.2217 C.3       1 <0>        -0.0953
     15 C15         8.0255   -1.0852    2.5138 C.3       1 <0>        -0.0906
     16 C16         3.6723    3.8570   -2.6681 C.3       1 <0>        -0.0871
     17 C17         4.4858    1.7161   -6.5463 C.3       1 <0>        -0.0716
     18 C18         2.9535    2.6133   -3.1875 C.3       1 <0>         0.1333
     19 C19         3.4659    2.2898   -5.5476 C.3       1 <0>         0.1246
     20 C20         5.1372    3.5153   -2.8394 C.3       1 <0>         0.0606
     21 C21         6.5260   -1.1310    2.1912 C.3       1 <0>         0.1012
     22 C22         5.8481    1.3265   -5.9256 C.3       1 <0>         0.1554
     23 C23         6.9383    1.3175   -7.0029 C.3       1 <0>        -0.0356
     24 C24         8.0800    4.9598    0.7851 C.3       1 <0>        -0.0795
     25 C25         8.7880    6.0338    1.6192 C.3       1 <0>        -0.1203
     26 C26         6.9719    4.2276    1.5544 C.3       1 <0>        -0.0920
     27 C27         9.9095    6.7454    0.8629 C.3       1 <0>         0.1502
     28 C28         6.2906    3.1130    0.7514 C.3       1 <0>         0.0224
     29 N1          5.1345    2.5635   -3.9339 N.am      1 <0>        -0.3553
     30 N2          3.8653    2.0037   -4.1710 N.3       1 <0>        -0.4320
     31 N3          5.7803   -0.0123   -5.3216 N.3       1 <0>        -0.9031
     32 N4         10.5470    7.7366    1.7233 N.3       1 <0>        -0.9068
     33 N5          6.0911    0.1457    1.6201 N.am      1 <0>        -0.5526
     34 N6          5.7762    3.5917   -0.5046 N.am      1 <0>        -0.5576
     35 O1          7.3278    2.7504   -4.6301 O.2       1 <0>        -0.6710
     36 O2          4.0675    2.7325    1.6631 O.2       1 <0>        -0.4901
     37 O3          5.5431    1.2807    3.6019 O.2       1 <0>        -0.5902
     38 O4          6.0670    1.6440   -1.7490 O.2       1 <0>        -0.5833
     39 H1          5.6997   -2.0446  -10.9989 H         1 <0>         0.1320
     40 H2          6.9911   -2.8626   -9.0451 H         1 <0>         0.1324
     41 H3          4.9808    0.3274  -11.1059 H         1 <0>         0.1328
     42 H4          7.5644   -1.3176   -7.2012 H         1 <0>         0.1324
     43 H5          5.5489    1.8806   -9.2673 H         1 <0>         0.1434
     44 H6          8.8652   -3.1496    0.7818 H         1 <0>         0.0405
     45 H7          9.1645   -2.1042   -0.6039 H         1 <0>         0.0421
     46 H8          6.8280   -1.3732   -0.6439 H         1 <0>         0.0362
     47 H9          6.8815   -3.1326   -0.6466 H         1 <0>         0.0439
     48 H10         9.9572   -1.1013    1.5494 H         1 <0>         0.0350
     49 H11         8.7621   -0.0959    0.7377 H         1 <0>         0.0428
     50 H12         5.1599   -2.2505    0.9279 H         1 <0>         0.0663
     51 H13         6.3761   -3.2341    1.7388 H         1 <0>         0.0466
     52 H14         8.2894   -1.9712    3.1052 H         1 <0>         0.0493
     53 H15         8.2509   -0.2099    3.1351 H         1 <0>         0.0520
     54 H16         3.4181    4.7133   -3.3051 H         1 <0>         0.0915
     55 H17         3.3944    4.0971   -1.6373 H         1 <0>         0.0601
     56 H18         4.0497    0.8441   -7.0524 H         1 <0>         0.0688
     57 H19         4.6431    2.4675   -7.3320 H         1 <0>         0.0630
     58 H20         2.8170    1.9026   -2.3635 H         1 <0>         0.0807
     59 H21         1.9588    2.8453   -3.5837 H         1 <0>         0.0380
     60 H22         3.3744    3.3723   -5.7123 H         1 <0>         0.0484
     61 H23         2.4818    1.8533   -5.7569 H         1 <0>         0.0697
     62 H24         5.7646    4.3810   -3.0694 H         1 <0>         0.0843
     63 H25         5.9510   -1.2586    3.1143 H         1 <0>         0.0831
     64 H26         7.8868    1.0311   -6.5450 H         1 <0>         0.0704
     65 H27         7.0672    2.3317   -7.3854 H         1 <0>         0.0718
     66 H28         7.6494    5.4516   -0.0948 H         1 <0>         0.0606
     67 H29         8.8216    4.2418    0.4157 H         1 <0>         0.0458
     68 H30         8.0356    6.7709    1.9287 H         1 <0>         0.0375
     69 H31         9.1825    5.5824    2.5383 H         1 <0>         0.0392
     70 H32         6.2171    4.9575    1.8728 H         1 <0>         0.0606
     71 H33         7.3929    3.7874    2.4660 H         1 <0>         0.0579
     72 H34         9.5108    7.2416   -0.0285 H         1 <0>         0.0571
     73 H35        10.6706    6.0303    0.5375 H         1 <0>         0.0503
     74 H36         7.0421    2.3587    0.4881 H         1 <0>         0.0993
     75 H37         4.9287   -0.2795   -4.8849 H         1 <0>         0.3700
     76 H38         6.6336   -0.5056   -5.1950 H         1 <0>         0.3660
     77 H39        11.2163    8.3531    1.3147 H         1 <0>         0.3465
     78 H40        10.4498    7.6340    2.7108 H         1 <0>         0.3446
     79 H41         6.1146    0.2589    0.6111 H         1 <0>         0.3148
     80 H42         5.4441    4.5531   -0.5557 H         1 <0>         0.3220
@<TRIPOS>BOND
     1    1    2 ar
     2    1    3 ar
     3    2    4 ar
     4    3    5 ar
     5    4    6 ar
     6    5    6 ar
     7    6   23 1
     8    7   22 1
     9    7   29 am
    10    7   35 2
    11    8    9 1
    12    8   28 1
    13    8   36 2
    14    9   33 am
    15    9   37 2
    16   10   20 1
    17   10   34 am
    18   10   38 2
    19   11   12 1
    20   11   13 1
    21   12   14 1
    22   13   15 1
    23   14   21 1
    24   15   21 1
    25   16   18 1
    26   16   20 1
    27   17   19 1
    28   17   22 1
    29   18   30 1
    30   19   30 1
    31   20   29 1
    32   21   33 1
    33   22   23 1
    34   22   31 1
    35   24   25 1
    36   24   26 1
    37   25   27 1
    38   26   28 1
    39   27   32 1
    40   28   34 1
    41   29   30 1
    42    1   39 1
    43    2   40 1
    44    3   41 1
    45    4   42 1
    46    5   43 1
    47   11   44 1
    48   11   45 1
    49   12   46 1
    50   12   47 1
    51   13   48 1
    52   13   49 1
    53   14   50 1
    54   14   51 1
    55   15   52 1
    56   15   53 1
    57   16   54 1
    58   16   55 1
    59   17   56 1
    60   17   57 1
    61   18   58 1
    62   18   59 1
    63   19   60 1
    64   19   61 1
    65   20   62 1
    66   21   63 1
    67   23   64 1
    68   23   65 1
    69   24   66 1
    70   24   67 1
    71   25   68 1
    72   25   69 1
    73   26   70 1
    74   26   71 1
    75   27   72 1
    76   27   73 1
    77   28   74 1
    78   31   75 1
    79   31   76 1
    80   32   77 1
    81   32   78 1
    82   33   79 1
    83   34   80 1
@<TRIPOS>MOLECULE
1a46_ligand_41
   80    83     0     0     0
SMALL
USER_CHARGES

mmff94s_NoEstat = 82.05
@<TRIPOS>ATOM
      1 C1          9.0003   12.0144   -5.4225 C.ar      1 <0>        -0.1300
      2 C2          9.4537   11.5665   -4.1818 C.ar      1 <0>        -0.1323
      3 C3          7.8120   11.5127   -5.9535 C.ar      1 <0>        -0.1309
      4 C4          8.7189   10.6167   -3.4722 C.ar      1 <0>        -0.1275
      5 C5          7.0772   10.5629   -5.2439 C.ar      1 <0>        -0.1272
      6 C6          7.5355   10.1211   -4.0078 C.ar      1 <0>        -0.0843
      7 C7          6.3757    6.6257   -2.8269 C.2       1 <0>         0.6709
      8 C8          5.2358    2.3798    1.5634 C.2       1 <0>         0.4867
      9 C9          4.0737    1.7586    0.8450 C.2       1 <0>         0.5883
     10 C10         6.5256    3.6321   -1.6689 C.2       1 <0>         0.6572
     11 C11         4.0644   -3.1378    0.1954 C.3       1 <0>        -0.0802
     12 C12         4.9349   -2.3079   -0.7445 C.3       1 <0>        -0.0765
     13 C13         3.3449   -2.2675    1.2224 C.3       1 <0>        -0.0774
     14 C14         4.1346   -1.1879   -1.4107 C.3       1 <0>        -0.0953
     15 C15         2.5480   -1.1477    0.5515 C.3       1 <0>        -0.0906
     16 C16         5.8400    3.2307   -4.0468 C.3       1 <0>        -0.0871
     17 C17         7.0291    7.4385   -5.1265 C.3       1 <0>        -0.0716
     18 C18         7.1120    3.6562   -4.7776 C.3       1 <0>         0.1333
     19 C19         6.8955    5.9616   -5.5361 C.3       1 <0>         0.1246
     20 C20         5.7868    4.1659   -2.8575 C.3       1 <0>         0.0606
     21 C21         3.4011   -0.2972   -0.3991 C.3       1 <0>         0.1012
     22 C22         7.1815    7.6752   -3.6055 C.3       1 <0>         0.1554
     23 C23         6.7451    9.0995   -3.2444 C.3       1 <0>        -0.0356
     24 C24         6.0158    5.3379    2.0114 C.3       1 <0>        -0.0795
     25 C25         6.7209    6.4716    2.7653 C.3       1 <0>        -0.1203
     26 C26         6.9719    4.2276    1.5544 C.3       1 <0>        -0.0920
     27 C27         5.7742    7.5909    3.1979 C.3       1 <0>         0.1502
     28 C28         6.2906    3.1130    0.7514 C.3       1 <0>         0.0224
     29 N1          6.5101    5.3360   -3.3173 N.am      1 <0>        -0.3553
     30 N2          7.3084    5.0783   -4.4472 N.3       1 <0>        -0.4320
     31 N3          8.5804    7.4980   -3.1893 N.3       1 <0>        -0.9031
     32 N4          4.7531    7.0666    4.0988 N.3       1 <0>        -0.9068
     33 N5          4.3625    0.5037    0.3619 N.am      1 <0>        -0.5526
     34 N6          5.7762    3.5917   -0.5046 N.am      1 <0>        -0.5576
     35 O1          5.6876    6.9159   -1.8485 O.2       1 <0>        -0.6710
     36 O2          5.3022    2.1819    2.7699 O.2       1 <0>        -0.4901
     37 O3          3.0463    2.4099    0.7491 O.2       1 <0>        -0.5902
     38 O4          7.6924    3.2783   -1.7917 O.2       1 <0>        -0.5833
     39 H1          9.5724   12.7539   -5.9752 H         1 <0>         0.1320
     40 H2         10.3789   11.9573   -3.7685 H         1 <0>         0.1324
     41 H3          7.4591   11.8615   -6.9197 H         1 <0>         0.1328
     42 H4          9.0800   10.2736   -2.5062 H         1 <0>         0.1324
     43 H5          6.1526   10.1776   -5.6655 H         1 <0>         0.1434
     44 H6          3.3227   -3.6924   -0.3927 H         1 <0>         0.0405
     45 H7          4.6827   -3.8816    0.7106 H         1 <0>         0.0421
     46 H8          5.7747   -1.8806   -0.1833 H         1 <0>         0.0362
     47 H9          5.3667   -2.9577   -1.5143 H         1 <0>         0.0439
     48 H10         2.6703   -2.8890    1.8223 H         1 <0>         0.0350
     49 H11         4.0784   -1.8371    1.9148 H         1 <0>         0.0428
     50 H12         4.8088   -0.5817   -2.0279 H         1 <0>         0.0663
     51 H13         3.3981   -1.6353   -2.0902 H         1 <0>         0.0466
     52 H14         1.7203   -1.5929   -0.0152 H         1 <0>         0.0493
     53 H15         2.0985   -0.5129    1.3247 H         1 <0>         0.0520
     54 H16         4.9736    3.4114   -4.6951 H         1 <0>         0.0915
     55 H17         5.8531    2.1713   -3.7729 H         1 <0>         0.0601
     56 H18         7.8805    7.8879   -5.6555 H         1 <0>         0.0688
     57 H19         6.1391    7.9685   -5.4921 H         1 <0>         0.0630
     58 H20         7.9647    3.0932   -4.3794 H         1 <0>         0.0807
     59 H21         7.0607    3.4497   -5.8523 H         1 <0>         0.0380
     60 H22         5.8545    5.7643   -5.8276 H         1 <0>         0.0484
     61 H23         7.5124    5.7838   -6.4252 H         1 <0>         0.0697
     62 H24         4.7698    4.4250   -2.5496 H         1 <0>         0.0843
     63 H25         2.7649    0.4200   -0.9282 H         1 <0>         0.0831
     64 H26         6.8700    9.2469   -2.1701 H         1 <0>         0.0704
     65 H27         5.6795    9.2080   -3.4549 H         1 <0>         0.0718
     66 H28         5.2579    4.9142    2.6804 H         1 <0>         0.0606
     67 H29         5.4809    5.7546    1.1500 H         1 <0>         0.0458
     68 H30         7.2000    6.0392    3.6534 H         1 <0>         0.0375
     69 H31         7.5258    6.8807    2.1417 H         1 <0>         0.0392
     70 H32         7.4599    3.7926    2.4354 H         1 <0>         0.0606
     71 H33         7.7645    4.6634    0.9347 H         1 <0>         0.0579
     72 H34         5.2908    8.0386    2.3228 H         1 <0>         0.0571
     73 H35         6.3225    8.3806    3.7198 H         1 <0>         0.0503
     74 H36         7.0421    2.3587    0.4881 H         1 <0>         0.0993
     75 H37         9.1142    6.7979   -3.6499 H         1 <0>         0.3700
     76 H38         8.8693    7.9327   -2.3437 H         1 <0>         0.3660
     77 H39         4.0028    7.6695    4.3608 H         1 <0>         0.3465
     78 H40         4.9421    6.2118    4.5770 H         1 <0>         0.3446
     79 H41         5.2837    0.1150    0.5408 H         1 <0>         0.3148
     80 H42         4.8120    3.9176   -0.5391 H         1 <0>         0.3220
@<TRIPOS>BOND
     1    1    2 ar
     2    1    3 ar
     3    2    4 ar
     4    3    5 ar
     5    4    6 ar
     6    5    6 ar
     7    6   23 1
     8    7   22 1
     9    7   29 am
    10    7   35 2
    11    8    9 1
    12    8   28 1
    13    8   36 2
    14    9   33 am
    15    9   37 2
    16   10   20 1
    17   10   34 am
    18   10   38 2
    19   11   12 1
    20   11   13 1
    21   12   14 1
    22   13   15 1
    23   14   21 1
    24   15   21 1
    25   16   18 1
    26   16   20 1
    27   17   19 1
    28   17   22 1
    29   18   30 1
    30   19   30 1
    31   20   29 1
    32   21   33 1
    33   22   23 1
    34   22   31 1
    35   24   25 1
    36   24   26 1
    37   25   27 1
    38   26   28 1
    39   27   32 1
    40   28   34 1
    41   29   30 1
    42    1   39 1
    43    2   40 1
    44    3   41 1
    45    4   42 1
    46    5   43 1
    47   11   44 1
    48   11   45 1
    49   12   46 1
    50   12   47 1
    51   13   48 1
    52   13   49 1
    53   14   50 1
    54   14   51 1
    55   15   52 1
    56   15   53 1
    57   16   54 1
    58   16   55 1
    59   17   56 1
    60   17   57 1
    61   18   58 1
    62   18   59 1
    63   19   60 1
    64   19   61 1
    65   20   62 1
    66   21   63 1
    67   23   64 1
    68   23   65 1
    69   24   66 1
    70   24   67 1
    71   25   68 1
    72   25   69 1
    73   26   70 1
    74   26   71 1
    75   27   72 1
    76   27   73 1
    77   28   74 1
    78   31   75 1
    79   31   76 1
    80   32   77 1
    81   32   78 1
    82   33   79 1
    83   34   80 1
@<TRIPOS>MOLECULE
1a46_ligand_42
   80    83     0     0     0
SMALL
USER_CHARGES

mmff94s_NoEstat = 82.05
@<TRIPOS>ATOM
      1 C1         -4.4072   -3.0319  -14.4211 C.ar      1 <0>        -0.1300
      2 C2         -3.1014   -2.5683  -14.5810 C.ar      1 <0>        -0.1323
      3 C3         -5.2666   -2.3997  -13.5224 C.ar      1 <0>        -0.1309
      4 C4         -2.6549   -1.4727  -13.8421 C.ar      1 <0>        -0.1275
      5 C5         -4.8200   -1.3041  -12.7835 C.ar      1 <0>        -0.1272
      6 C6         -3.5171   -0.8478  -12.9482 C.ar      1 <0>        -0.0843
      7 C7         -1.9267    1.0916  -10.0042 C.2       1 <0>         0.6709
      8 C8          2.7796    3.2097   -6.1637 C.2       1 <0>         0.4867
      9 C9          2.0233    2.5606   -5.0416 C.2       1 <0>         0.5883
     10 C10         0.2181    1.9581   -7.7739 C.2       1 <0>         0.6572
     11 C11         1.9645   -1.8404   -1.9043 C.3       1 <0>        -0.0802
     12 C12         1.2252   -1.9940   -3.2304 C.3       1 <0>        -0.0765
     13 C13         1.9764   -0.3897   -1.4308 C.3       1 <0>        -0.0774
     14 C14         1.7870   -1.0593   -4.3004 C.3       1 <0>        -0.0953
     15 C15         2.5397    0.5467   -2.4984 C.3       1 <0>        -0.0906
     16 C16        -1.6423    1.0361   -6.3687 C.3       1 <0>        -0.0871
     17 C17        -3.4475   -0.9240   -9.9997 C.3       1 <0>        -0.0716
     18 C18        -1.5606   -0.4439   -6.7372 C.3       1 <0>         0.1333
     19 C19        -3.1819   -0.9495   -8.4846 C.3       1 <0>         0.1246
     20 C20        -1.2590    1.7411   -7.6524 C.3       1 <0>         0.0606
     21 C21         1.7865    0.3978   -3.8249 C.3       1 <0>         0.1012
     22 C22        -2.4199   -0.1108  -10.8216 C.3       1 <0>         0.1554
     23 C23        -3.0368    0.3307  -12.1535 C.3       1 <0>        -0.0356
     24 C24         1.4445    5.5921   -8.9731 C.3       1 <0>        -0.0795
     25 C25         1.6370    7.0835   -9.2718 C.3       1 <0>        -0.1203
     26 C26         2.1570    5.1335   -7.6933 C.3       1 <0>        -0.0920
     27 C27         0.9502    7.5360  -10.5601 C.3       1 <0>         0.1502
     28 C28         2.0196    3.6328   -7.4097 C.3       1 <0>         0.0224
     29 N1         -1.6352    0.7917   -8.6825 N.am      1 <0>        -0.3553
     30 N2         -1.8196   -0.5121   -8.1858 N.3       1 <0>        -0.4320
     31 N3         -1.2259   -0.9195  -11.1076 N.3       1 <0>        -0.9031
     32 N4          1.1922    8.9569  -10.7874 N.3       1 <0>        -0.9068
     33 N5          2.3972    1.2522   -4.8415 N.am      1 <0>        -0.5526
     34 N6          0.6426    3.2153   -7.3763 N.am      1 <0>        -0.5576
     35 O1         -1.7935    2.2123  -10.4955 O.2       1 <0>        -0.6710
     36 O2          3.9949    3.2835   -6.0334 O.2       1 <0>        -0.4901
     37 O3          1.1778    3.2234   -4.4630 O.2       1 <0>        -0.5902
     38 O4          0.9290    1.0536   -8.1959 O.2       1 <0>        -0.5833
     39 H1         -4.7549   -3.8850  -14.9963 H         1 <0>         0.1320
     40 H2         -2.4324   -3.0606  -15.2808 H         1 <0>         0.1324
     41 H3         -6.2832   -2.7609  -13.3979 H         1 <0>         0.1328
     42 H4         -1.6358   -1.1186  -13.9733 H         1 <0>         0.1324
     43 H5         -5.4966   -0.8180  -12.0857 H         1 <0>         0.1434
     44 H6          1.4927   -2.4726   -1.1437 H         1 <0>         0.0405
     45 H7          2.9964   -2.1943   -2.0196 H         1 <0>         0.0421
     46 H8          1.2964   -3.0321   -3.5740 H         1 <0>         0.0362
     47 H9          0.1599   -1.7786   -3.0820 H         1 <0>         0.0439
     48 H10         0.9554   -0.0796   -1.1762 H         1 <0>         0.0350
     49 H11         2.5731   -0.3059   -0.5155 H         1 <0>         0.0428
     50 H12         2.8086   -1.3703   -4.5560 H         1 <0>         0.0663
     51 H13         1.1952   -1.1537   -5.2190 H         1 <0>         0.0466
     52 H14         2.4782    1.5839   -2.1473 H         1 <0>         0.0493
     53 H15         3.6062    0.3314   -2.6462 H         1 <0>         0.0520
     54 H16        -2.6779    1.2865   -6.1074 H         1 <0>         0.0915
     55 H17        -0.9998    1.2887   -5.5196 H         1 <0>         0.0601
     56 H18        -3.4897   -1.9539  -10.3797 H         1 <0>         0.0688
     57 H19        -4.4523   -0.5086  -10.1558 H         1 <0>         0.0630
     58 H20        -0.5419   -0.8072   -6.5560 H         1 <0>         0.0807
     59 H21        -2.2364   -1.0589   -6.1327 H         1 <0>         0.0380
     60 H22        -3.9187   -0.3080   -7.9817 H         1 <0>         0.0484
     61 H23        -3.3442   -1.9688   -8.1140 H         1 <0>         0.0697
     62 H24        -1.7661    2.6997   -7.7936 H         1 <0>         0.0843
     63 H25         0.7550    0.7494   -3.7073 H         1 <0>         0.0831
     64 H26        -2.2923    0.8934  -12.7197 H         1 <0>         0.0704
     65 H27        -3.8625    1.0157  -11.9521 H         1 <0>         0.0718
     66 H28         0.3683    5.4079   -8.8774 H         1 <0>         0.0606
     67 H29         1.7918    5.0040   -9.8306 H         1 <0>         0.0458
     68 H30         1.2300    7.6523   -8.4256 H         1 <0>         0.0375
     69 H31         2.7093    7.3123   -9.3176 H         1 <0>         0.0392
     70 H32         1.7604    5.7005   -6.8419 H         1 <0>         0.0606
     71 H33         3.2243    5.3739   -7.7660 H         1 <0>         0.0579
     72 H34        -0.1287    7.3572  -10.4981 H         1 <0>         0.0571
     73 H35         1.3345    6.9786  -11.4193 H         1 <0>         0.0503
     74 H36         2.4714    3.0747   -8.2388 H         1 <0>         0.0993
     75 H37        -0.9249   -1.5612  -10.4112 H         1 <0>         0.3700
     76 H38        -0.6609   -0.6518  -11.8799 H         1 <0>         0.3660
     77 H39         0.7014    9.4044  -11.5317 H         1 <0>         0.3465
     78 H40         1.9755    9.3785  -10.3359 H         1 <0>         0.3446
     79 H41         3.1304    0.8623   -5.4263 H         1 <0>         0.3148
     80 H42        -0.0552    3.8781   -7.0434 H         1 <0>         0.3220
@<TRIPOS>BOND
     1    1    2 ar
     2    1    3 ar
     3    2    4 ar
     4    3    5 ar
     5    4    6 ar
     6    5    6 ar
     7    6   23 1
     8    7   22 1
     9    7   29 am
    10    7   35 2
    11    8    9 1
    12    8   28 1
    13    8   36 2
    14    9   33 am
    15    9   37 2
    16   10   20 1
    17   10   34 am
    18   10   38 2
    19   11   12 1
    20   11   13 1
    21   12   14 1
    22   13   15 1
    23   14   21 1
    24   15   21 1
    25   16   18 1
    26   16   20 1
    27   17   19 1
    28   17   22 1
    29   18   30 1
    30   19   30 1
    31   20   29 1
    32   21   33 1
    33   22   23 1
    34   22   31 1
    35   24   25 1
    36   24   26 1
    37   25   27 1
    38   26   28 1
    39   27   32 1
    40   28   34 1
    41   29   30 1
    42    1   39 1
    43    2   40 1
    44    3   41 1
    45    4   42 1
    46    5   43 1
    47   11   44 1
    48   11   45 1
    49   12   46 1
    50   12   47 1
    51   13   48 1
    52   13   49 1
    53   14   50 1
    54   14   51 1
    55   15   52 1
    56   15   53 1
    57   16   54 1
    58   16   55 1
    59   17   56 1
    60   17   57 1
    61   18   58 1
    62   18   59 1
    63   19   60 1
    64   19   61 1
    65   20   62 1
    66   21   63 1
    67   23   64 1
    68   23   65 1
    69   24   66 1
    70   24   67 1
    71   25   68 1
    72   25   69 1
    73   26   70 1
    74   26   71 1
    75   27   72 1
    76   27   73 1
    77   28   74 1
    78   31   75 1
    79   31   76 1
    80   32   77 1
    81   32   78 1
    82   33   79 1
    83   34   80 1
@<TRIPOS>MOLECULE
1a46_ligand_43
   80    83     0     0     0
SMALL
USER_CHARGES

mmff94s_NoEstat = 82.06
@<TRIPOS>ATOM
      1 C1         -2.6445   10.2618   -2.2387 C.ar      1 <0>        -0.1300
      2 C2         -2.3767    9.6884   -0.9957 C.ar      1 <0>        -0.1323
      3 C3         -2.1497    9.6701   -3.4009 C.ar      1 <0>        -0.1309
      4 C4         -1.6141    8.5233   -0.9148 C.ar      1 <0>        -0.1275
      5 C5         -1.3871    8.5049   -3.3201 C.ar      1 <0>        -0.1272
      6 C6         -1.1243    7.9391   -2.0776 C.ar      1 <0>        -0.0843
      7 C7          2.0326    5.7272   -1.7627 C.2       1 <0>         0.6709
      8 C8          5.2358    2.3798    1.5634 C.2       1 <0>         0.4867
      9 C9          4.0737    1.7586    0.8450 C.2       1 <0>         0.5883
     10 C10         4.7954    4.5647   -0.6048 C.2       1 <0>         0.6572
     11 C11         4.8597   -2.3625   -1.7617 C.3       1 <0>        -0.0802
     12 C12         5.2794   -1.0401   -2.3982 C.3       1 <0>        -0.0765
     13 C13         4.2715   -2.1623   -0.3676 C.3       1 <0>        -0.0774
     14 C14         4.1312   -0.0301   -2.4063 C.3       1 <0>        -0.0953
     15 C15         3.1253   -1.1498   -0.3806 C.3       1 <0>        -0.0906
     16 C16         5.5346    5.5870   -2.7713 C.3       1 <0>        -0.0871
     17 C17         1.6625    7.8714   -3.0437 C.3       1 <0>        -0.0716
     18 C18         5.3303    7.0689   -2.4625 C.3       1 <0>         0.1333
     19 C19         3.1731    7.8019   -3.3266 C.3       1 <0>         0.1246
     20 C20         4.4137    4.9104   -2.0113 C.3       1 <0>         0.0606
     21 C21         3.5216    0.1899   -1.0153 C.3       1 <0>         0.1012
     22 C22         1.1885    7.0064   -1.8522 C.3       1 <0>         0.1554
     23 C23        -0.3040    6.6858   -1.9906 C.3       1 <0>        -0.0356
     24 C24         8.0800    4.9598    0.7851 C.3       1 <0>        -0.0795
     25 C25         8.7880    6.0338    1.6192 C.3       1 <0>        -0.1203
     26 C26         6.9719    4.2276    1.5544 C.3       1 <0>        -0.0920
     27 C27         7.8523    7.1445    2.0953 C.3       1 <0>         0.1502
     28 C28         6.2906    3.1130    0.7514 C.3       1 <0>         0.0224
     29 N1          3.3921    5.9372   -1.9343 N.am      1 <0>        -0.3553
     30 N2          3.8913    7.2279   -2.1903 N.3       1 <0>        -0.4320
     31 N3          1.3958    7.7147   -0.5806 N.3       1 <0>        -0.9031
     32 N4          8.5978    8.1361    2.8636 N.3       1 <0>        -0.9068
     33 N5          4.4695    0.8988   -0.1529 N.am      1 <0>        -0.5526
     34 N6          5.7762    3.5917   -0.5046 N.am      1 <0>        -0.5576
     35 O1          1.5345    4.6231   -1.5437 O.2       1 <0>        -0.6710
     36 O2          5.3022    2.1819    2.7699 O.2       1 <0>        -0.4901
     37 O3          2.9489    2.0822    1.1900 O.2       1 <0>        -0.5902
     38 O4          4.2448    5.1367    0.3286 O.2       1 <0>        -0.5833
     39 H1         -3.2382   11.1691   -2.3016 H         1 <0>         0.1320
     40 H2         -2.7620   10.1493   -0.0908 H         1 <0>         0.1324
     41 H3         -2.3582   10.1168   -4.3687 H         1 <0>         0.1328
     42 H4         -1.4106    8.0836    0.0580 H         1 <0>         0.1324
     43 H5         -1.0058    8.0510   -4.2309 H         1 <0>         0.1434
     44 H6          4.1159   -2.8528   -2.4019 H         1 <0>         0.0405
     45 H7          5.7231   -3.0350   -1.7048 H         1 <0>         0.0421
     46 H8          6.1342   -0.6256   -1.8502 H         1 <0>         0.0362
     47 H9          5.6182   -1.2183   -3.4252 H         1 <0>         0.0439
     48 H10         3.9090   -3.1215    0.0193 H         1 <0>         0.0350
     49 H11         5.0588   -1.8223    0.3160 H         1 <0>         0.0428
     50 H12         4.4917    0.9217   -2.8150 H         1 <0>         0.0663
     51 H13         3.3477   -0.3907   -3.0849 H         1 <0>         0.0466
     52 H14         2.2839   -1.5748   -0.9427 H         1 <0>         0.0493
     53 H15         2.7736   -0.9912    0.6460 H         1 <0>         0.0520
     54 H16         5.4011    5.4209   -3.8475 H         1 <0>         0.0915
     55 H17         6.5319    5.2374   -2.4876 H         1 <0>         0.0601
     56 H18         1.3705    8.9173   -2.8778 H         1 <0>         0.0688
     57 H19         1.1370    7.5576   -3.9559 H         1 <0>         0.0630
     58 H20         5.8802    7.3284   -1.5498 H         1 <0>         0.0807
     59 H21         5.7080    7.7145   -3.2631 H         1 <0>         0.0380
     60 H22         3.3395    7.2079   -4.2360 H         1 <0>         0.0484
     61 H23         3.5406    8.8134   -3.5374 H         1 <0>         0.0697
     62 H24         4.0335    4.0099   -2.5019 H         1 <0>         0.0843
     63 H25         2.6430    0.8387   -1.0930 H         1 <0>         0.0831
     64 H26        -0.6181    6.0842   -1.1357 H         1 <0>         0.0704
     65 H27        -0.4536    6.0709   -2.8800 H         1 <0>         0.0718
     66 H28         7.6494    5.4516   -0.0948 H         1 <0>         0.0606
     67 H29         8.8216    4.2418    0.4157 H         1 <0>         0.0458
     68 H30         9.2384    5.5414    2.4909 H         1 <0>         0.0375
     69 H31         9.6146    6.4624    1.0384 H         1 <0>         0.0392
     70 H32         6.2171    4.9575    1.8728 H         1 <0>         0.0606
     71 H33         7.3929    3.7874    2.4660 H         1 <0>         0.0579
     72 H34         7.0543    6.7273    2.7189 H         1 <0>         0.0571
     73 H35         7.3850    7.6478    1.2437 H         1 <0>         0.0503
     74 H36         7.0421    2.3587    0.4881 H         1 <0>         0.0993
     75 H37         2.1998    8.2929   -0.4996 H         1 <0>         0.3700
     76 H38         0.8492    7.4324    0.1998 H         1 <0>         0.3660
     77 H39         8.0840    8.8516    3.3317 H         1 <0>         0.3465
     78 H40         9.5851    8.1885    2.7309 H         1 <0>         0.3446
     79 H41         5.4635    0.7487   -0.2981 H         1 <0>         0.3148
     80 H42         6.1527    3.1949   -1.3636 H         1 <0>         0.3220
@<TRIPOS>BOND
     1    1    2 ar
     2    1    3 ar
     3    2    4 ar
     4    3    5 ar
     5    4    6 ar
     6    5    6 ar
     7    6   23 1
     8    7   22 1
     9    7   29 am
    10    7   35 2
    11    8    9 1
    12    8   28 1
    13    8   36 2
    14    9   33 am
    15    9   37 2
    16   10   20 1
    17   10   34 am
    18   10   38 2
    19   11   12 1
    20   11   13 1
    21   12   14 1
    22   13   15 1
    23   14   21 1
    24   15   21 1
    25   16   18 1
    26   16   20 1
    27   17   19 1
    28   17   22 1
    29   18   30 1
    30   19   30 1
    31   20   29 1
    32   21   33 1
    33   22   23 1
    34   22   31 1
    35   24   25 1
    36   24   26 1
    37   25   27 1
    38   26   28 1
    39   27   32 1
    40   28   34 1
    41   29   30 1
    42    1   39 1
    43    2   40 1
    44    3   41 1
    45    4   42 1
    46    5   43 1
    47   11   44 1
    48   11   45 1
    49   12   46 1
    50   12   47 1
    51   13   48 1
    52   13   49 1
    53   14   50 1
    54   14   51 1
    55   15   52 1
    56   15   53 1
    57   16   54 1
    58   16   55 1
    59   17   56 1
    60   17   57 1
    61   18   58 1
    62   18   59 1
    63   19   60 1
    64   19   61 1
    65   20   62 1
    66   21   63 1
    67   23   64 1
    68   23   65 1
    69   24   66 1
    70   24   67 1
    71   25   68 1
    72   25   69 1
    73   26   70 1
    74   26   71 1
    75   27   72 1
    76   27   73 1
    77   28   74 1
    78   31   75 1
    79   31   76 1
    80   32   77 1
    81   32   78 1
    82   33   79 1
    83   34   80 1
@<TRIPOS>MOLECULE
1a46_ligand_44
   80    83     0     0     0
SMALL
USER_CHARGES

mmff94s_NoEstat = 82.06
@<TRIPOS>ATOM
      1 C1          5.9504   -1.3642  -10.1903 C.ar      1 <0>        -0.1300
      2 C2          6.6765   -1.8241   -9.0918 C.ar      1 <0>        -0.1323
      3 C3          5.5463   -0.0305  -10.2504 C.ar      1 <0>        -0.1309
      4 C4          6.9984   -0.9504   -8.0532 C.ar      1 <0>        -0.1275
      5 C5          5.8681    0.8432   -9.2119 C.ar      1 <0>        -0.1272
      6 C6          6.5921    0.3776   -8.1201 C.ar      1 <0>        -0.0843
      7 C7          6.1974    2.2868   -4.7798 C.2       1 <0>         0.6709
      8 C8          5.2358    2.3798    1.5634 C.2       1 <0>         0.4867
      9 C9          5.6457    1.7076    2.8411 C.2       1 <0>         0.5883
     10 C10         5.7098    2.8119   -1.6475 C.2       1 <0>         0.6572
     11 C11         9.7235   -1.0796    2.8207 C.3       1 <0>        -0.0802
     12 C12         8.4526   -1.6930    2.2388 C.3       1 <0>        -0.0765
     13 C13         9.4972    0.3517    3.3002 C.3       1 <0>        -0.0774
     14 C14         7.2832   -1.6014    3.2201 C.3       1 <0>        -0.0953
     15 C15         8.3255    0.4384    4.2793 C.3       1 <0>        -0.0906
     16 C16         3.6723    3.8570   -2.6681 C.3       1 <0>        -0.0871
     17 C17         4.4858    1.7161   -6.5463 C.3       1 <0>        -0.0716
     18 C18         2.9535    2.6133   -3.1875 C.3       1 <0>         0.1333
     19 C19         3.4659    2.2898   -5.5476 C.3       1 <0>         0.1246
     20 C20         5.1372    3.5153   -2.8394 C.3       1 <0>         0.0606
     21 C21         7.0342   -0.1713    3.7178 C.3       1 <0>         0.1012
     22 C22         5.8481    1.3265   -5.9256 C.3       1 <0>         0.1554
     23 C23         6.9383    1.3175   -7.0029 C.3       1 <0>        -0.0356
     24 C24         6.0158    5.3379    2.0114 C.3       1 <0>        -0.0795
     25 C25         6.7209    6.4716    2.7653 C.3       1 <0>        -0.1203
     26 C26         6.9719    4.2276    1.5544 C.3       1 <0>        -0.0920
     27 C27         5.7742    7.5909    3.1979 C.3       1 <0>         0.1502
     28 C28         6.2906    3.1130    0.7514 C.3       1 <0>         0.0224
     29 N1          5.1345    2.5635   -3.9339 N.am      1 <0>        -0.3553
     30 N2          3.8653    2.0037   -4.1710 N.3       1 <0>        -0.4320
     31 N3          5.7803   -0.0123   -5.3216 N.3       1 <0>        -0.9031
     32 N4          6.5168    8.6391    3.8900 N.3       1 <0>        -0.9068
     33 N5          6.5118    0.6599    2.6310 N.am      1 <0>        -0.5526
     34 N6          5.7762    3.5917   -0.5046 N.am      1 <0>        -0.5576
     35 O1          7.3278    2.7504   -4.6301 O.2       1 <0>        -0.6710
     36 O2          4.0412    2.3628    1.2952 O.2       1 <0>        -0.4901
     37 O3          5.1730    2.1266    3.8850 O.2       1 <0>        -0.5902
     38 O4          6.0670    1.6440   -1.7490 O.2       1 <0>        -0.5833
     39 H1          5.6997   -2.0446  -10.9989 H         1 <0>         0.1320
     40 H2          6.9911   -2.8626   -9.0451 H         1 <0>         0.1324
     41 H3          4.9808    0.3274  -11.1059 H         1 <0>         0.1328
     42 H4          7.5644   -1.3176   -7.2012 H         1 <0>         0.1324
     43 H5          5.5489    1.8806   -9.2673 H         1 <0>         0.1434
     44 H6         10.0697   -1.6931    3.6617 H         1 <0>         0.0405
     45 H7         10.5190   -1.0948    2.0671 H         1 <0>         0.0421
     46 H8          8.1939   -1.1805    1.3044 H         1 <0>         0.0362
     47 H9          8.6355   -2.7431    1.9836 H         1 <0>         0.0439
     48 H10        10.4072    0.7253    3.7834 H         1 <0>         0.0350
     49 H11         9.3078    1.0008    2.4368 H         1 <0>         0.0428
     50 H12         6.3793   -1.9968    2.7410 H         1 <0>         0.0663
     51 H13         7.4938   -2.2464    4.0826 H         1 <0>         0.0466
     52 H14         8.5960   -0.0894    5.2028 H         1 <0>         0.0493
     53 H15         8.1600    1.4882    4.5503 H         1 <0>         0.0520
     54 H16         3.4181    4.7133   -3.3051 H         1 <0>         0.0915
     55 H17         3.3944    4.0971   -1.6373 H         1 <0>         0.0601
     56 H18         4.0497    0.8441   -7.0524 H         1 <0>         0.0688
     57 H19         4.6431    2.4675   -7.3320 H         1 <0>         0.0630
     58 H20         2.8170    1.9026   -2.3635 H         1 <0>         0.0807
     59 H21         1.9588    2.8453   -3.5837 H         1 <0>         0.0380
     60 H22         3.3744    3.3723   -5.7123 H         1 <0>         0.0484
     61 H23         2.4818    1.8533   -5.7569 H         1 <0>         0.0697
     62 H24         5.7646    4.3810   -3.0694 H         1 <0>         0.0843
     63 H25         6.2589   -0.1767    4.4911 H         1 <0>         0.0831
     64 H26         7.8868    1.0311   -6.5450 H         1 <0>         0.0704
     65 H27         7.0672    2.3317   -7.3854 H         1 <0>         0.0718
     66 H28         5.2579    4.9142    2.6804 H         1 <0>         0.0606
     67 H29         5.4809    5.7546    1.1500 H         1 <0>         0.0458
     68 H30         7.2000    6.0392    3.6534 H         1 <0>         0.0375
     69 H31         7.5258    6.8807    2.1417 H         1 <0>         0.0392
     70 H32         7.4599    3.7926    2.4354 H         1 <0>         0.0606
     71 H33         7.7645    4.6634    0.9347 H         1 <0>         0.0579
     72 H34         4.9986    7.1962    3.8630 H         1 <0>         0.0571
     73 H35         5.2784    8.0349    2.3297 H         1 <0>         0.0503
     74 H36         7.0421    2.3587    0.4881 H         1 <0>         0.0993
     75 H37         4.9287   -0.2795   -4.8849 H         1 <0>         0.3700
     76 H38         6.6336   -0.5056   -5.1950 H         1 <0>         0.3660
     77 H39         5.9996    9.3711    4.3277 H         1 <0>         0.3465
     78 H40         7.4997    8.7018    3.7315 H         1 <0>         0.3446
     79 H41         6.8020    0.4535    1.6799 H         1 <0>         0.3148
     80 H42         5.4441    4.5531   -0.5557 H         1 <0>         0.3220
@<TRIPOS>BOND
     1    1    2 ar
     2    1    3 ar
     3    2    4 ar
     4    3    5 ar
     5    4    6 ar
     6    5    6 ar
     7    6   23 1
     8    7   22 1
     9    7   29 am
    10    7   35 2
    11    8    9 1
    12    8   28 1
    13    8   36 2
    14    9   33 am
    15    9   37 2
    16   10   20 1
    17   10   34 am
    18   10   38 2
    19   11   12 1
    20   11   13 1
    21   12   14 1
    22   13   15 1
    23   14   21 1
    24   15   21 1
    25   16   18 1
    26   16   20 1
    27   17   19 1
    28   17   22 1
    29   18   30 1
    30   19   30 1
    31   20   29 1
    32   21   33 1
    33   22   23 1
    34   22   31 1
    35   24   25 1
    36   24   26 1
    37   25   27 1
    38   26   28 1
    39   27   32 1
    40   28   34 1
    41   29   30 1
    42    1   39 1
    43    2   40 1
    44    3   41 1
    45    4   42 1
    46    5   43 1
    47   11   44 1
    48   11   45 1
    49   12   46 1
    50   12   47 1
    51   13   48 1
    52   13   49 1
    53   14   50 1
    54   14   51 1
    55   15   52 1
    56   15   53 1
    57   16   54 1
    58   16   55 1
    59   17   56 1
    60   17   57 1
    61   18   58 1
    62   18   59 1
    63   19   60 1
    64   19   61 1
    65   20   62 1
    66   21   63 1
    67   23   64 1
    68   23   65 1
    69   24   66 1
    70   24   67 1
    71   25   68 1
    72   25   69 1
    73   26   70 1
    74   26   71 1
    75   27   72 1
    76   27   73 1
    77   28   74 1
    78   31   75 1
    79   31   76 1
    80   32   77 1
    81   32   78 1
    82   33   79 1
    83   34   80 1
@<TRIPOS>MOLECULE
1a46_ligand_45
   80    83     0     0     0
SMALL
USER_CHARGES

mmff94s_NoEstat = 82.06
@<TRIPOS>ATOM
      1 C1          5.9504   -1.3642  -10.1903 C.ar      1 <0>        -0.1300
      2 C2          6.6765   -1.8241   -9.0918 C.ar      1 <0>        -0.1323
      3 C3          5.5463   -0.0305  -10.2504 C.ar      1 <0>        -0.1309
      4 C4          6.9984   -0.9504   -8.0532 C.ar      1 <0>        -0.1275
      5 C5          5.8681    0.8432   -9.2119 C.ar      1 <0>        -0.1272
      6 C6          6.5921    0.3776   -8.1201 C.ar      1 <0>        -0.0843
      7 C7          6.1974    2.2868   -4.7798 C.2       1 <0>         0.6709
      8 C8          5.2358    2.3798    1.5634 C.2       1 <0>         0.4867
      9 C9          5.6522    1.1980    2.3894 C.2       1 <0>         0.5883
     10 C10         5.7098    2.8119   -1.6475 C.2       1 <0>         0.6572
     11 C11         8.5733   -2.2013    0.3137 C.3       1 <0>        -0.0802
     12 C12         7.0878   -2.2472   -0.0344 C.3       1 <0>        -0.0765
     13 C13         8.9012   -1.0498    1.2605 C.3       1 <0>        -0.0774
     14 C14         6.2162   -2.2794    1.2217 C.3       1 <0>        -0.0953
     15 C15         8.0255   -1.0852    2.5138 C.3       1 <0>        -0.0906
     16 C16         3.6723    3.8570   -2.6681 C.3       1 <0>        -0.0871
     17 C17         4.4858    1.7161   -6.5463 C.3       1 <0>        -0.0716
     18 C18         2.9535    2.6133   -3.1875 C.3       1 <0>         0.1333
     19 C19         3.4659    2.2898   -5.5476 C.3       1 <0>         0.1246
     20 C20         5.1372    3.5153   -2.8394 C.3       1 <0>         0.0606
     21 C21         6.5260   -1.1310    2.1912 C.3       1 <0>         0.1012
     22 C22         5.8481    1.3265   -5.9256 C.3       1 <0>         0.1554
     23 C23         6.9383    1.3175   -7.0029 C.3       1 <0>        -0.0356
     24 C24         6.0158    5.3379    2.0114 C.3       1 <0>        -0.0795
     25 C25         6.7209    6.4716    2.7653 C.3       1 <0>        -0.1203
     26 C26         6.9719    4.2276    1.5544 C.3       1 <0>        -0.0920
     27 C27         5.7742    7.5909    3.1979 C.3       1 <0>         0.1502
     28 C28         6.2906    3.1130    0.7514 C.3       1 <0>         0.0224
     29 N1          5.1345    2.5635   -3.9339 N.am      1 <0>        -0.3553
     30 N2          3.8653    2.0037   -4.1710 N.3       1 <0>        -0.4320
     31 N3          5.7803   -0.0123   -5.3216 N.3       1 <0>        -0.9031
     32 N4          6.5168    8.6391    3.8900 N.3       1 <0>        -0.9068
     33 N5          6.0911    0.1457    1.6201 N.am      1 <0>        -0.5526
     34 N6          5.7762    3.5917   -0.5046 N.am      1 <0>        -0.5576
     35 O1          7.3278    2.7504   -4.6301 O.2       1 <0>        -0.6710
     36 O2          4.0675    2.7325    1.6631 O.2       1 <0>        -0.4901
     37 O3          5.5431    1.2807    3.6019 O.2       1 <0>        -0.5902
     38 O4          6.0670    1.6440   -1.7490 O.2       1 <0>        -0.5833
     39 H1          5.6997   -2.0446  -10.9989 H         1 <0>         0.1320
     40 H2          6.9911   -2.8626   -9.0451 H         1 <0>         0.1324
     41 H3          4.9808    0.3274  -11.1059 H         1 <0>         0.1328
     42 H4          7.5644   -1.3176   -7.2012 H         1 <0>         0.1324
     43 H5          5.5489    1.8806   -9.2673 H         1 <0>         0.1434
     44 H6          8.8652   -3.1496    0.7818 H         1 <0>         0.0405
     45 H7          9.1645   -2.1042   -0.6039 H         1 <0>         0.0421
     46 H8          6.8280   -1.3732   -0.6439 H         1 <0>         0.0362
     47 H9          6.8815   -3.1326   -0.6466 H         1 <0>         0.0439
     48 H10         9.9572   -1.1013    1.5494 H         1 <0>         0.0350
     49 H11         8.7621   -0.0959    0.7377 H         1 <0>         0.0428
     50 H12         5.1599   -2.2505    0.9279 H         1 <0>         0.0663
     51 H13         6.3761   -3.2341    1.7388 H         1 <0>         0.0466
     52 H14         8.2894   -1.9712    3.1052 H         1 <0>         0.0493
     53 H15         8.2509   -0.2099    3.1351 H         1 <0>         0.0520
     54 H16         3.4181    4.7133   -3.3051 H         1 <0>         0.0915
     55 H17         3.3944    4.0971   -1.6373 H         1 <0>         0.0601
     56 H18         4.0497    0.8441   -7.0524 H         1 <0>         0.0688
     57 H19         4.6431    2.4675   -7.3320 H         1 <0>         0.0630
     58 H20         2.8170    1.9026   -2.3635 H         1 <0>         0.0807
     59 H21         1.9588    2.8453   -3.5837 H         1 <0>         0.0380
     60 H22         3.3744    3.3723   -5.7123 H         1 <0>         0.0484
     61 H23         2.4818    1.8533   -5.7569 H         1 <0>         0.0697
     62 H24         5.7646    4.3810   -3.0694 H         1 <0>         0.0843
     63 H25         5.9510   -1.2586    3.1143 H         1 <0>         0.0831
     64 H26         7.8868    1.0311   -6.5450 H         1 <0>         0.0704
     65 H27         7.0672    2.3317   -7.3854 H         1 <0>         0.0718
     66 H28         5.2579    4.9142    2.6804 H         1 <0>         0.0606
     67 H29         5.4809    5.7546    1.1500 H         1 <0>         0.0458
     68 H30         7.2000    6.0392    3.6534 H         1 <0>         0.0375
     69 H31         7.5258    6.8807    2.1417 H         1 <0>         0.0392
     70 H32         7.4599    3.7926    2.4354 H         1 <0>         0.0606
     71 H33         7.7645    4.6634    0.9347 H         1 <0>         0.0579
     72 H34         4.9986    7.1962    3.8630 H         1 <0>         0.0571
     73 H35         5.2784    8.0349    2.3297 H         1 <0>         0.0503
     74 H36         7.0421    2.3587    0.4881 H         1 <0>         0.0993
     75 H37         4.9287   -0.2795   -4.8849 H         1 <0>         0.3700
     76 H38         6.6336   -0.5056   -5.1950 H         1 <0>         0.3660
     77 H39         5.9996    9.3711    4.3277 H         1 <0>         0.3465
     78 H40         7.4997    8.7018    3.7315 H         1 <0>         0.3446
     79 H41         6.1146    0.2589    0.6111 H         1 <0>         0.3148
     80 H42         5.4441    4.5531   -0.5557 H         1 <0>         0.3220
@<TRIPOS>BOND
     1    1    2 ar
     2    1    3 ar
     3    2    4 ar
     4    3    5 ar
     5    4    6 ar
     6    5    6 ar
     7    6   23 1
     8    7   22 1
     9    7   29 am
    10    7   35 2
    11    8    9 1
    12    8   28 1
    13    8   36 2
    14    9   33 am
    15    9   37 2
    16   10   20 1
    17   10   34 am
    18   10   38 2
    19   11   12 1
    20   11   13 1
    21   12   14 1
    22   13   15 1
    23   14   21 1
    24   15   21 1
    25   16   18 1
    26   16   20 1
    27   17   19 1
    28   17   22 1
    29   18   30 1
    30   19   30 1
    31   20   29 1
    32   21   33 1
    33   22   23 1
    34   22   31 1
    35   24   25 1
    36   24   26 1
    37   25   27 1
    38   26   28 1
    39   27   32 1
    40   28   34 1
    41   29   30 1
    42    1   39 1
    43    2   40 1
    44    3   41 1
    45    4   42 1
    46    5   43 1
    47   11   44 1
    48   11   45 1
    49   12   46 1
    50   12   47 1
    51   13   48 1
    52   13   49 1
    53   14   50 1
    54   14   51 1
    55   15   52 1
    56   15   53 1
    57   16   54 1
    58   16   55 1
    59   17   56 1
    60   17   57 1
    61   18   58 1
    62   18   59 1
    63   19   60 1
    64   19   61 1
    65   20   62 1
    66   21   63 1
    67   23   64 1
    68   23   65 1
    69   24   66 1
    70   24   67 1
    71   25   68 1
    72   25   69 1
    73   26   70 1
    74   26   71 1
    75   27   72 1
    76   27   73 1
    77   28   74 1
    78   31   75 1
    79   31   76 1
    80   32   77 1
    81   32   78 1
    82   33   79 1
    83   34   80 1
@<TRIPOS>MOLECULE
1a46_ligand_46
   80    83     0     0     0
SMALL
USER_CHARGES

mmff94s_NoEstat = 82.06
@<TRIPOS>ATOM
      1 C1          9.0003   12.0144   -5.4225 C.ar      1 <0>        -0.1300
      2 C2          9.4537   11.5665   -4.1818 C.ar      1 <0>        -0.1323
      3 C3          7.8120   11.5127   -5.9535 C.ar      1 <0>        -0.1309
      4 C4          8.7189   10.6167   -3.4722 C.ar      1 <0>        -0.1275
      5 C5          7.0772   10.5629   -5.2439 C.ar      1 <0>        -0.1272
      6 C6          7.5355   10.1211   -4.0078 C.ar      1 <0>        -0.0843
      7 C7          6.3757    6.6257   -2.8269 C.2       1 <0>         0.6709
      8 C8          5.2358    2.3798    1.5634 C.2       1 <0>         0.4867
      9 C9          5.6457    1.7076    2.8411 C.2       1 <0>         0.5883
     10 C10         6.5256    3.6321   -1.6689 C.2       1 <0>         0.6572
     11 C11         9.7235   -1.0796    2.8207 C.3       1 <0>        -0.0802
     12 C12         8.4526   -1.6930    2.2388 C.3       1 <0>        -0.0765
     13 C13         9.4972    0.3517    3.3002 C.3       1 <0>        -0.0774
     14 C14         7.2832   -1.6014    3.2201 C.3       1 <0>        -0.0953
     15 C15         8.3255    0.4384    4.2793 C.3       1 <0>        -0.0906
     16 C16         5.8400    3.2307   -4.0468 C.3       1 <0>        -0.0871
     17 C17         7.0291    7.4385   -5.1265 C.3       1 <0>        -0.0716
     18 C18         7.1120    3.6562   -4.7776 C.3       1 <0>         0.1333
     19 C19         6.8955    5.9616   -5.5361 C.3       1 <0>         0.1246
     20 C20         5.7868    4.1659   -2.8575 C.3       1 <0>         0.0606
     21 C21         7.0342   -0.1713    3.7178 C.3       1 <0>         0.1012
     22 C22         7.1815    7.6752   -3.6055 C.3       1 <0>         0.1554
     23 C23         6.7451    9.0995   -3.2444 C.3       1 <0>        -0.0356
     24 C24         6.0158    5.3379    2.0114 C.3       1 <0>        -0.0795
     25 C25         6.7209    6.4716    2.7653 C.3       1 <0>        -0.1203
     26 C26         6.9719    4.2276    1.5544 C.3       1 <0>        -0.0920
     27 C27         5.7742    7.5909    3.1979 C.3       1 <0>         0.1502
     28 C28         6.2906    3.1130    0.7514 C.3       1 <0>         0.0224
     29 N1          6.5101    5.3360   -3.3173 N.am      1 <0>        -0.3553
     30 N2          7.3084    5.0783   -4.4472 N.3       1 <0>        -0.4320
     31 N3          8.5804    7.4980   -3.1893 N.3       1 <0>        -0.9031
     32 N4          6.5168    8.6391    3.8900 N.3       1 <0>        -0.9068
     33 N5          6.5118    0.6599    2.6310 N.am      1 <0>        -0.5526
     34 N6          5.7762    3.5917   -0.5046 N.am      1 <0>        -0.5576
     35 O1          5.6876    6.9159   -1.8485 O.2       1 <0>        -0.6710
     36 O2          4.0412    2.3628    1.2952 O.2       1 <0>        -0.4901
     37 O3          5.1730    2.1266    3.8850 O.2       1 <0>        -0.5902
     38 O4          7.6924    3.2783   -1.7917 O.2       1 <0>        -0.5833
     39 H1          9.5724   12.7539   -5.9752 H         1 <0>         0.1320
     40 H2         10.3789   11.9573   -3.7685 H         1 <0>         0.1324
     41 H3          7.4591   11.8615   -6.9197 H         1 <0>         0.1328
     42 H4          9.0800   10.2736   -2.5062 H         1 <0>         0.1324
     43 H5          6.1526   10.1776   -5.6655 H         1 <0>         0.1434
     44 H6         10.0697   -1.6931    3.6617 H         1 <0>         0.0405
     45 H7         10.5190   -1.0948    2.0671 H         1 <0>         0.0421
     46 H8          8.1939   -1.1805    1.3044 H         1 <0>         0.0362
     47 H9          8.6355   -2.7431    1.9836 H         1 <0>         0.0439
     48 H10        10.4072    0.7253    3.7834 H         1 <0>         0.0350
     49 H11         9.3078    1.0008    2.4368 H         1 <0>         0.0428
     50 H12         6.3793   -1.9968    2.7410 H         1 <0>         0.0663
     51 H13         7.4938   -2.2464    4.0826 H         1 <0>         0.0466
     52 H14         8.5960   -0.0894    5.2028 H         1 <0>         0.0493
     53 H15         8.1600    1.4882    4.5503 H         1 <0>         0.0520
     54 H16         4.9736    3.4114   -4.6951 H         1 <0>         0.0915
     55 H17         5.8531    2.1713   -3.7729 H         1 <0>         0.0601
     56 H18         7.8805    7.8879   -5.6555 H         1 <0>         0.0688
     57 H19         6.1391    7.9685   -5.4921 H         1 <0>         0.0630
     58 H20         7.9647    3.0932   -4.3794 H         1 <0>         0.0807
     59 H21         7.0607    3.4497   -5.8523 H         1 <0>         0.0380
     60 H22         5.8545    5.7643   -5.8276 H         1 <0>         0.0484
     61 H23         7.5124    5.7838   -6.4252 H         1 <0>         0.0697
     62 H24         4.7698    4.4250   -2.5496 H         1 <0>         0.0843
     63 H25         6.2589   -0.1767    4.4911 H         1 <0>         0.0831
     64 H26         6.8700    9.2469   -2.1701 H         1 <0>         0.0704
     65 H27         5.6795    9.2080   -3.4549 H         1 <0>         0.0718
     66 H28         5.2579    4.9142    2.6804 H         1 <0>         0.0606
     67 H29         5.4809    5.7546    1.1500 H         1 <0>         0.0458
     68 H30         7.2000    6.0392    3.6534 H         1 <0>         0.0375
     69 H31         7.5258    6.8807    2.1417 H         1 <0>         0.0392
     70 H32         7.4599    3.7926    2.4354 H         1 <0>         0.0606
     71 H33         7.7645    4.6634    0.9347 H         1 <0>         0.0579
     72 H34         4.9986    7.1962    3.8630 H         1 <0>         0.0571
     73 H35         5.2784    8.0349    2.3297 H         1 <0>         0.0503
     74 H36         7.0421    2.3587    0.4881 H         1 <0>         0.0993
     75 H37         9.1142    6.7979   -3.6499 H         1 <0>         0.3700
     76 H38         8.8693    7.9327   -2.3437 H         1 <0>         0.3660
     77 H39         5.9996    9.3711    4.3277 H         1 <0>         0.3465
     78 H40         7.4997    8.7018    3.7315 H         1 <0>         0.3446
     79 H41         6.8020    0.4535    1.6799 H         1 <0>         0.3148
     80 H42         4.8120    3.9176   -0.5391 H         1 <0>         0.3220
@<TRIPOS>BOND
     1    1    2 ar
     2    1    3 ar
     3    2    4 ar
     4    3    5 ar
     5    4    6 ar
     6    5    6 ar
     7    6   23 1
     8    7   22 1
     9    7   29 am
    10    7   35 2
    11    8    9 1
    12    8   28 1
    13    8   36 2
    14    9   33 am
    15    9   37 2
    16   10   20 1
    17   10   34 am
    18   10   38 2
    19   11   12 1
    20   11   13 1
    21   12   14 1
    22   13   15 1
    23   14   21 1
    24   15   21 1
    25   16   18 1
    26   16   20 1
    27   17   19 1
    28   17   22 1
    29   18   30 1
    30   19   30 1
    31   20   29 1
    32   21   33 1
    33   22   23 1
    34   22   31 1
    35   24   25 1
    36   24   26 1
    37   25   27 1
    38   26   28 1
    39   27   32 1
    40   28   34 1
    41   29   30 1
    42    1   39 1
    43    2   40 1
    44    3   41 1
    45    4   42 1
    46    5   43 1
    47   11   44 1
    48   11   45 1
    49   12   46 1
    50   12   47 1
    51   13   48 1
    52   13   49 1
    53   14   50 1
    54   14   51 1
    55   15   52 1
    56   15   53 1
    57   16   54 1
    58   16   55 1
    59   17   56 1
    60   17   57 1
    61   18   58 1
    62   18   59 1
    63   19   60 1
    64   19   61 1
    65   20   62 1
    66   21   63 1
    67   23   64 1
    68   23   65 1
    69   24   66 1
    70   24   67 1
    71   25   68 1
    72   25   69 1
    73   26   70 1
    74   26   71 1
    75   27   72 1
    76   27   73 1
    77   28   74 1
    78   31   75 1
    79   31   76 1
    80   32   77 1
    81   32   78 1
    82   33   79 1
    83   34   80 1
@<TRIPOS>MOLECULE
1a46_ligand_47
   80    83     0     0     0
SMALL
USER_CHARGES

mmff94s_NoEstat = 82.07
@<TRIPOS>ATOM
      1 C1          5.6982   13.0256   -2.9158 C.ar      1 <0>        -0.1300
      2 C2          6.1379   12.4463   -1.7256 C.ar      1 <0>        -0.1323
      3 C3          4.9080   12.2902   -3.7992 C.ar      1 <0>        -0.1309
      4 C4          5.7876   11.1315   -1.4188 C.ar      1 <0>        -0.1275
      5 C5          4.5577   10.9753   -3.4925 C.ar      1 <0>        -0.1272
      6 C6          4.9998   10.4046   -2.3043 C.ar      1 <0>        -0.0843
      7 C7          5.2783    6.5491   -2.1791 C.2       1 <0>         0.6709
      8 C8          5.2358    2.3798    1.5634 C.2       1 <0>         0.4867
      9 C9          4.0737    1.7586    0.8450 C.2       1 <0>         0.5883
     10 C10         6.5256    3.6321   -1.6689 C.2       1 <0>         0.6572
     11 C11         0.4518    4.7141   -0.7499 C.3       1 <0>        -0.0802
     12 C12         0.4604    4.3542    0.7335 C.3       1 <0>        -0.0765
     13 C13         1.6276    4.0877   -1.4949 C.3       1 <0>        -0.0774
     14 C14         0.5251    2.8410    0.9450 C.3       1 <0>        -0.0953
     15 C15         1.6892    2.5750   -1.2783 C.3       1 <0>        -0.0906
     16 C16         6.3772    3.6983   -4.1707 C.3       1 <0>        -0.0871
     17 C17         5.8129    8.1649   -4.0442 C.3       1 <0>        -0.0716
     18 C18         7.4333    4.7567   -4.4831 C.3       1 <0>         0.1333
     19 C19         6.3652    6.9275   -4.7727 C.3       1 <0>         0.1246
     20 C20         5.7868    4.1659   -2.8575 C.3       1 <0>         0.0606
     21 C21         1.6997    2.1861    0.2060 C.3       1 <0>         0.1012
     22 C22         5.6591    7.9981   -2.5141 C.3       1 <0>         0.1554
     23 C23         4.6229    8.9902   -1.9743 C.3       1 <0>        -0.0356
     24 C24         8.0800    4.9598    0.7851 C.3       1 <0>        -0.0795
     25 C25         8.7880    6.0338    1.6192 C.3       1 <0>        -0.1203
     26 C26         6.9719    4.2276    1.5544 C.3       1 <0>        -0.0920
     27 C27         9.9095    6.7454    0.8629 C.3       1 <0>         0.1502
     28 C28         6.2906    3.1130    0.7514 C.3       1 <0>         0.0224
     29 N1          6.0028    5.5999   -2.8834 N.am      1 <0>        -0.3553
     30 N2          6.9706    5.9918   -3.8269 N.3       1 <0>        -0.4320
     31 N3          6.9384    8.2454   -1.8330 N.3       1 <0>        -0.9031
     32 N4         10.5470    7.7366    1.7233 N.3       1 <0>        -0.9068
     33 N5          2.9687    2.5774    0.8237 N.am      1 <0>        -0.5526
     34 N6          5.7762    3.5917   -0.5046 N.am      1 <0>        -0.5576
     35 O1          4.4149    6.2702   -1.3473 O.2       1 <0>        -0.6710
     36 O2          5.3022    2.1819    2.7699 O.2       1 <0>        -0.4901
     37 O3          4.2153    0.6340    0.3935 O.2       1 <0>        -0.5902
     38 O4          7.6924    3.2783   -1.7917 O.2       1 <0>        -0.5833
     39 H1          5.9710   14.0494   -3.1547 H         1 <0>         0.1320
     40 H2          6.7531   13.0191   -1.0378 H         1 <0>         0.1324
     41 H3          4.5659   12.7413   -4.7260 H         1 <0>         0.1328
     42 H4          6.1348   10.6884   -0.4892 H         1 <0>         0.1324
     43 H5          3.9418   10.4100   -4.1868 H         1 <0>         0.1434
     44 H6         -0.4874    4.3704   -1.2007 H         1 <0>         0.0405
     45 H7          0.4800    5.8035   -0.8654 H         1 <0>         0.0421
     46 H8          1.3175    4.8339    1.2211 H         1 <0>         0.0362
     47 H9         -0.4408    4.7532    1.2132 H         1 <0>         0.0439
     48 H10         1.5394    4.3016   -2.5662 H         1 <0>         0.0350
     49 H11         2.5628    4.5493   -1.1557 H         1 <0>         0.0428
     50 H12         0.5905    2.6301    2.0193 H         1 <0>         0.0663
     51 H13        -0.4122    2.3938    0.5899 H         1 <0>         0.0466
     52 H14         0.8190    2.1125   -1.7613 H         1 <0>         0.0493
     53 H15         2.5797    2.1759   -1.7790 H         1 <0>         0.0520
     54 H16         5.6043    3.7190   -4.9489 H         1 <0>         0.0915
     55 H17         6.7998    2.6898   -4.1286 H         1 <0>         0.0601
     56 H18         6.4556    9.0301   -4.2569 H         1 <0>         0.0688
     57 H19         4.8364    8.4048   -4.4864 H         1 <0>         0.0630
     58 H20         8.3862    4.4645   -4.0255 H         1 <0>         0.0807
     59 H21         7.6091    4.8610   -5.5594 H         1 <0>         0.0380
     60 H22         5.5493    6.4477   -5.3309 H         1 <0>         0.0484
     61 H23         7.1061    7.2537   -5.5124 H         1 <0>         0.0697
     62 H24         4.7253    3.9276   -2.7453 H         1 <0>         0.0843
     63 H25         1.6405    1.0972    0.3052 H         1 <0>         0.0831
     64 H26         4.5381    8.8614   -0.8937 H         1 <0>         0.0704
     65 H27         3.6462    8.7482   -2.3975 H         1 <0>         0.0718
     66 H28         7.6494    5.4516   -0.0948 H         1 <0>         0.0606
     67 H29         8.8216    4.2418    0.4157 H         1 <0>         0.0458
     68 H30         8.0356    6.7709    1.9287 H         1 <0>         0.0375
     69 H31         9.1825    5.5824    2.5383 H         1 <0>         0.0392
     70 H32         6.2171    4.9575    1.8728 H         1 <0>         0.0606
     71 H33         7.3929    3.7874    2.4660 H         1 <0>         0.0579
     72 H34         9.5108    7.2416   -0.0285 H         1 <0>         0.0571
     73 H35        10.6706    6.0303    0.5375 H         1 <0>         0.0503
     74 H36         7.0421    2.3587    0.4881 H         1 <0>         0.0993
     75 H37         7.7703    7.9574   -2.2937 H         1 <0>         0.3700
     76 H38         6.9090    8.4964   -0.8720 H         1 <0>         0.3660
     77 H39        11.2163    8.3531    1.3147 H         1 <0>         0.3465
     78 H40        10.4498    7.6340    2.7108 H         1 <0>         0.3446
     79 H41         3.0357    3.4942    1.2556 H         1 <0>         0.3148
     80 H42         4.8120    3.9176   -0.5391 H         1 <0>         0.3220
@<TRIPOS>BOND
     1    1    2 ar
     2    1    3 ar
     3    2    4 ar
     4    3    5 ar
     5    4    6 ar
     6    5    6 ar
     7    6   23 1
     8    7   22 1
     9    7   29 am
    10    7   35 2
    11    8    9 1
    12    8   28 1
    13    8   36 2
    14    9   33 am
    15    9   37 2
    16   10   20 1
    17   10   34 am
    18   10   38 2
    19   11   12 1
    20   11   13 1
    21   12   14 1
    22   13   15 1
    23   14   21 1
    24   15   21 1
    25   16   18 1
    26   16   20 1
    27   17   19 1
    28   17   22 1
    29   18   30 1
    30   19   30 1
    31   20   29 1
    32   21   33 1
    33   22   23 1
    34   22   31 1
    35   24   25 1
    36   24   26 1
    37   25   27 1
    38   26   28 1
    39   27   32 1
    40   28   34 1
    41   29   30 1
    42    1   39 1
    43    2   40 1
    44    3   41 1
    45    4   42 1
    46    5   43 1
    47   11   44 1
    48   11   45 1
    49   12   46 1
    50   12   47 1
    51   13   48 1
    52   13   49 1
    53   14   50 1
    54   14   51 1
    55   15   52 1
    56   15   53 1
    57   16   54 1
    58   16   55 1
    59   17   56 1
    60   17   57 1
    61   18   58 1
    62   18   59 1
    63   19   60 1
    64   19   61 1
    65   20   62 1
    66   21   63 1
    67   23   64 1
    68   23   65 1
    69   24   66 1
    70   24   67 1
    71   25   68 1
    72   25   69 1
    73   26   70 1
    74   26   71 1
    75   27   72 1
    76   27   73 1
    77   28   74 1
    78   31   75 1
    79   31   76 1
    80   32   77 1
    81   32   78 1
    82   33   79 1
    83   34   80 1
@<TRIPOS>MOLECULE
1a46_ligand_48
   80    83     0     0     0
SMALL
USER_CHARGES

mmff94s_NoEstat = 82.08
@<TRIPOS>ATOM
      1 C1         -3.7305   -5.9204  -11.3537 C.ar      1 <0>        -0.1300
      2 C2         -2.4262   -5.5183  -11.6410 C.ar      1 <0>        -0.1323
      3 C3         -4.6750   -4.9808  -10.9404 C.ar      1 <0>        -0.1309
      4 C4         -2.0662   -4.1766  -11.5149 C.ar      1 <0>        -0.1275
      5 C5         -4.3150   -3.6391  -10.8142 C.ar      1 <0>        -0.1272
      6 C6         -3.0129   -3.2458  -11.1023 C.ar      1 <0>        -0.0843
      7 C7         -1.7147   -0.0189   -9.4111 C.2       1 <0>         0.6709
      8 C8          2.7796    3.2097   -6.1637 C.2       1 <0>         0.4867
      9 C9          2.0233    2.5606   -5.0416 C.2       1 <0>         0.5883
     10 C10         0.2181    1.9581   -7.7739 C.2       1 <0>         0.6572
     11 C11         1.9645   -1.8404   -1.9043 C.3       1 <0>        -0.0802
     12 C12         1.2252   -1.9940   -3.2304 C.3       1 <0>        -0.0765
     13 C13         1.9764   -0.3897   -1.4308 C.3       1 <0>        -0.0774
     14 C14         1.7870   -1.0593   -4.3004 C.3       1 <0>        -0.0953
     15 C15         2.5397    0.5467   -2.4984 C.3       1 <0>        -0.0906
     16 C16        -1.7326    1.7367   -6.2145 C.3       1 <0>        -0.0871
     17 C17        -3.1871   -1.8587   -8.5042 C.3       1 <0>        -0.0716
     18 C18        -1.5889    0.2745   -5.7969 C.3       1 <0>         0.1333
     19 C19        -3.0480   -1.1203   -7.1617 C.3       1 <0>         0.1246
     20 C20        -1.2590    1.7411   -7.6524 C.3       1 <0>         0.0606
     21 C21         1.7865    0.3978   -3.8249 C.3       1 <0>         0.1012
     22 C22        -2.1125   -1.4947   -9.5555 C.3       1 <0>         0.1554
     23 C23        -2.6257   -1.8026  -10.9666 C.3       1 <0>        -0.0356
     24 C24         1.5857    6.0302   -6.5865 C.3       1 <0>        -0.0795
     25 C25         1.6811    7.5259   -6.9095 C.3       1 <0>        -0.1203
     26 C26         2.1570    5.1335   -7.6933 C.3       1 <0>        -0.0920
     27 C27         1.0885    8.4192   -5.8200 C.3       1 <0>         0.1502
     28 C28         2.0196    3.6328   -7.4097 C.3       1 <0>         0.0224
     29 N1         -1.5278    0.3875   -8.0990 N.am      1 <0>        -0.3553
     30 N2         -1.7250   -0.5121   -7.0349 N.3       1 <0>        -0.4320
     31 N3         -0.8818   -2.2667   -9.3297 N.3       1 <0>        -0.9031
     32 N4          1.1980    9.8225   -6.2046 N.3       1 <0>        -0.9068
     33 N5          2.3972    1.2522   -4.8415 N.am      1 <0>        -0.5526
     34 N6          0.6426    3.2153   -7.3763 N.am      1 <0>        -0.5576
     35 O1         -1.5651    0.7213  -10.3831 O.2       1 <0>        -0.6710
     36 O2          3.9949    3.2835   -6.0334 O.2       1 <0>        -0.4901
     37 O3          1.1778    3.2234   -4.4630 O.2       1 <0>        -0.5902
     38 O4          0.9290    1.0536   -8.1959 O.2       1 <0>        -0.5833
     39 H1         -4.0108   -6.9651  -11.4519 H         1 <0>         0.1320
     40 H2         -1.6909   -6.2500  -11.9629 H         1 <0>         0.1324
     41 H3         -5.6906   -5.2940  -10.7166 H         1 <0>         0.1328
     42 H4         -1.0476   -3.8726  -11.7408 H         1 <0>         0.1324
     43 H5         -5.0575   -2.9141  -10.4915 H         1 <0>         0.1434
     44 H6          1.4927   -2.4726   -1.1437 H         1 <0>         0.0405
     45 H7          2.9964   -2.1943   -2.0196 H         1 <0>         0.0421
     46 H8          1.2964   -3.0321   -3.5740 H         1 <0>         0.0362
     47 H9          0.1599   -1.7786   -3.0820 H         1 <0>         0.0439
     48 H10         0.9554   -0.0796   -1.1762 H         1 <0>         0.0350
     49 H11         2.5731   -0.3059   -0.5155 H         1 <0>         0.0428
     50 H12         2.8086   -1.3703   -4.5560 H         1 <0>         0.0663
     51 H13         1.1952   -1.1537   -5.2190 H         1 <0>         0.0466
     52 H14         2.4782    1.5839   -2.1473 H         1 <0>         0.0493
     53 H15         3.6062    0.3314   -2.6462 H         1 <0>         0.0520
     54 H16        -2.7915    2.0208   -6.1758 H         1 <0>         0.0915
     55 H17        -1.1685    2.4118   -5.5637 H         1 <0>         0.0601
     56 H18        -3.1756   -2.9428   -8.3269 H         1 <0>         0.0688
     57 H19        -4.1842   -1.6345   -8.9071 H         1 <0>         0.0630
     58 H20        -0.5812    0.1087   -5.3971 H         1 <0>         0.0807
     59 H21        -2.2993   -0.0031   -5.0104 H         1 <0>         0.0380
     60 H22        -3.8377   -0.3598   -7.0886 H         1 <0>         0.0484
     61 H23        -3.2188   -1.8335   -6.3463 H         1 <0>         0.0697
     62 H24        -1.7729    2.4744   -8.2803 H         1 <0>         0.0843
     63 H25         0.7550    0.7494   -3.7073 H         1 <0>         0.0831
     64 H26        -1.8489   -1.5475  -11.6898 H         1 <0>         0.0704
     65 H27        -3.4798   -1.1578  -11.1818 H         1 <0>         0.0718
     66 H28         2.1358    5.8550   -5.6547 H         1 <0>         0.0606
     67 H29         0.5392    5.7688   -6.3906 H         1 <0>         0.0458
     68 H30         2.7419    7.7748   -7.0444 H         1 <0>         0.0375
     69 H31         1.1870    7.7255   -7.8687 H         1 <0>         0.0392
     70 H32         3.2164    5.3787   -7.8393 H         1 <0>         0.0606
     71 H33         1.6466    5.3535   -8.6384 H         1 <0>         0.0579
     72 H34         1.6137    8.2608   -4.8719 H         1 <0>         0.0571
     73 H35         0.0315    8.1861   -5.6617 H         1 <0>         0.0503
     74 H36         2.4714    3.0747   -8.2388 H         1 <0>         0.0993
     75 H37        -0.6260   -2.4640   -8.3900 H         1 <0>         0.3700
     76 H38        -0.2603   -2.3800  -10.0968 H         1 <0>         0.3660
     77 H39         0.9557   10.5154   -5.5293 H         1 <0>         0.3465
     78 H40         1.3102   10.0373   -7.1723 H         1 <0>         0.3446
     79 H41         3.1304    0.8623   -5.4263 H         1 <0>         0.3148
     80 H42        -0.0552    3.8781   -7.0434 H         1 <0>         0.3220
@<TRIPOS>BOND
     1    1    2 ar
     2    1    3 ar
     3    2    4 ar
     4    3    5 ar
     5    4    6 ar
     6    5    6 ar
     7    6   23 1
     8    7   22 1
     9    7   29 am
    10    7   35 2
    11    8    9 1
    12    8   28 1
    13    8   36 2
    14    9   33 am
    15    9   37 2
    16   10   20 1
    17   10   34 am
    18   10   38 2
    19   11   12 1
    20   11   13 1
    21   12   14 1
    22   13   15 1
    23   14   21 1
    24   15   21 1
    25   16   18 1
    26   16   20 1
    27   17   19 1
    28   17   22 1
    29   18   30 1
    30   19   30 1
    31   20   29 1
    32   21   33 1
    33   22   23 1
    34   22   31 1
    35   24   25 1
    36   24   26 1
    37   25   27 1
    38   26   28 1
    39   27   32 1
    40   28   34 1
    41   29   30 1
    42    1   39 1
    43    2   40 1
    44    3   41 1
    45    4   42 1
    46    5   43 1
    47   11   44 1
    48   11   45 1
    49   12   46 1
    50   12   47 1
    51   13   48 1
    52   13   49 1
    53   14   50 1
    54   14   51 1
    55   15   52 1
    56   15   53 1
    57   16   54 1
    58   16   55 1
    59   17   56 1
    60   17   57 1
    61   18   58 1
    62   18   59 1
    63   19   60 1
    64   19   61 1
    65   20   62 1
    66   21   63 1
    67   23   64 1
    68   23   65 1
    69   24   66 1
    70   24   67 1
    71   25   68 1
    72   25   69 1
    73   26   70 1
    74   26   71 1
    75   27   72 1
    76   27   73 1
    77   28   74 1
    78   31   75 1
    79   31   76 1
    80   32   77 1
    81   32   78 1
    82   33   79 1
    83   34   80 1
@<TRIPOS>MOLECULE
1a46_ligand_49
   80    83     0     0     0
SMALL
USER_CHARGES

mmff94s_NoEstat = 82.09
@<TRIPOS>ATOM
      1 C1         11.1945    5.3647   -9.7731 C.ar      1 <0>        -0.1300
      2 C2         11.8337    5.1154   -8.5586 C.ar      1 <0>        -0.1323
      3 C3          9.8873    5.8513   -9.7863 C.ar      1 <0>        -0.1309
      4 C4         11.1656    5.3526   -7.3573 C.ar      1 <0>        -0.1275
      5 C5          9.2192    6.0884   -8.5850 C.ar      1 <0>        -0.1272
      6 C6          9.8628    5.8375   -7.3783 C.ar      1 <0>        -0.0843
      7 C7          7.6425    5.1042   -4.2977 C.2       1 <0>         0.6709
      8 C8          5.2358    2.3798    1.5634 C.2       1 <0>         0.4867
      9 C9          5.6457    1.7076    2.8411 C.2       1 <0>         0.5883
     10 C10         6.5256    3.6321   -1.6689 C.2       1 <0>         0.6572
     11 C11         3.7079    3.5804    7.0862 C.3       1 <0>        -0.0802
     12 C12         4.9897    4.0920    6.4342 C.3       1 <0>        -0.0765
     13 C13         3.0536    2.4730    6.2644 C.3       1 <0>        -0.0774
     14 C14         5.9653    2.9516    6.1399 C.3       1 <0>        -0.0953
     15 C15         4.0337    1.3362    5.9708 C.3       1 <0>        -0.0906
     16 C16         4.6595    3.2577   -3.3009 C.3       1 <0>        -0.0871
     17 C17         7.3760    4.3986   -6.7074 C.3       1 <0>        -0.0716
     18 C18         5.3367    2.3027   -4.2819 C.3       1 <0>         0.1333
     19 C19         6.2012    3.5529   -6.1864 C.3       1 <0>         0.1246
     20 C20         5.7868    4.1659   -2.8575 C.3       1 <0>         0.0606
     21 C21         5.3317    1.8242    5.3139 C.3       1 <0>         0.1012
     22 C22         8.3797    4.8486   -5.6198 C.3       1 <0>         0.1554
     23 C23         9.1441    6.0926   -6.0861 C.3       1 <0>        -0.0356
     24 C24         6.0158    5.3379    2.0114 C.3       1 <0>        -0.0795
     25 C25         6.7209    6.4716    2.7653 C.3       1 <0>        -0.1203
     26 C26         6.9719    4.2276    1.5544 C.3       1 <0>        -0.0920
     27 C27         5.7742    7.5909    3.1979 C.3       1 <0>         0.1502
     28 C28         6.2906    3.1130    0.7514 C.3       1 <0>         0.0224
     29 N1          6.7058    4.1331   -3.9791 N.am      1 <0>        -0.3553
     30 N2          6.4777    3.0462   -4.8435 N.3       1 <0>        -0.4320
     31 N3          9.3531    3.7833   -5.3380 N.3       1 <0>        -0.9031
     32 N4          6.5168    8.6391    3.8900 N.3       1 <0>        -0.9068
     33 N5          5.0674    2.2831    3.9484 N.am      1 <0>        -0.5526
     34 N6          5.7762    3.5917   -0.5046 N.am      1 <0>        -0.5576
     35 O1          7.8821    6.0807   -3.5877 O.2       1 <0>        -0.6710
     36 O2          4.0412    2.3628    1.2952 O.2       1 <0>        -0.4901
     37 O3          6.4307    0.7761    2.7710 O.2       1 <0>        -0.5902
     38 O4          7.6924    3.2783   -1.7917 O.2       1 <0>        -0.5833
     39 H1         11.7147    5.1800  -10.7084 H         1 <0>         0.1320
     40 H2         12.8515    4.7366   -8.5485 H         1 <0>         0.1324
     41 H3          9.3897    6.0452  -10.7320 H         1 <0>         0.1328
     42 H4         11.6716    5.1554   -6.4159 H         1 <0>         0.1324
     43 H5          8.2009    6.4675   -8.6050 H         1 <0>         0.1434
     44 H6          3.9384    3.1995    8.0889 H         1 <0>         0.0405
     45 H7          3.0032    4.4096    7.2151 H         1 <0>         0.0421
     46 H8          4.7422    4.6177    5.5041 H         1 <0>         0.0362
     47 H9          5.4699    4.8241    7.0934 H         1 <0>         0.0439
     48 H10         2.1857    2.0784    6.8050 H         1 <0>         0.0350
     49 H11         2.6771    2.8905    5.3227 H         1 <0>         0.0428
     50 H12         6.8426    3.3537    5.6189 H         1 <0>         0.0663
     51 H13         6.3228    2.5376    7.0913 H         1 <0>         0.0466
     52 H14         4.2801    0.8293    6.9125 H         1 <0>         0.0493
     53 H15         3.5425    0.5942    5.3298 H         1 <0>         0.0520
     54 H16         3.9023    3.8458   -3.8340 H         1 <0>         0.0915
     55 H17         4.1709    2.7289   -2.4768 H         1 <0>         0.0601
     56 H18         7.9078    3.8408   -7.4902 H         1 <0>         0.0688
     57 H19         6.9559    5.2827   -7.2061 H         1 <0>         0.0630
     58 H20         5.7303    1.4383   -3.7336 H         1 <0>         0.0807
     59 H21         4.6390    1.9190   -5.0344 H         1 <0>         0.0380
     60 H22         5.2889    4.1652   -6.1941 H         1 <0>         0.0484
     61 H23         6.0298    2.7205   -6.8794 H         1 <0>         0.0697
     62 H24         5.4651    5.1881   -2.6391 H         1 <0>         0.0843
     63 H25         6.0364    0.9913    5.2197 H         1 <0>         0.0831
     64 H26         9.8520    6.3858   -5.3087 H         1 <0>         0.0704
     65 H27         8.4405    6.9195   -6.1990 H         1 <0>         0.0718
     66 H28         5.2579    4.9142    2.6804 H         1 <0>         0.0606
     67 H29         5.4809    5.7546    1.1500 H         1 <0>         0.0458
     68 H30         7.2000    6.0392    3.6534 H         1 <0>         0.0375
     69 H31         7.5258    6.8807    2.1417 H         1 <0>         0.0392
     70 H32         7.4599    3.7926    2.4354 H         1 <0>         0.0606
     71 H33         7.7645    4.6634    0.9347 H         1 <0>         0.0579
     72 H34         4.9986    7.1962    3.8630 H         1 <0>         0.0571
     73 H35         5.2784    8.0349    2.3297 H         1 <0>         0.0503
     74 H36         7.0421    2.3587    0.4881 H         1 <0>         0.0993
     75 H37         9.0331    2.8434   -5.3754 H         1 <0>         0.3700
     76 H38        10.2196    4.0460   -4.9287 H         1 <0>         0.3660
     77 H39         5.9996    9.3711    4.3277 H         1 <0>         0.3465
     78 H40         7.4997    8.7018    3.7315 H         1 <0>         0.3446
     79 H41         4.4287    3.0611    3.8132 H         1 <0>         0.3148
     80 H42         4.8120    3.9176   -0.5391 H         1 <0>         0.3220
@<TRIPOS>BOND
     1    1    2 ar
     2    1    3 ar
     3    2    4 ar
     4    3    5 ar
     5    4    6 ar
     6    5    6 ar
     7    6   23 1
     8    7   22 1
     9    7   29 am
    10    7   35 2
    11    8    9 1
    12    8   28 1
    13    8   36 2
    14    9   33 am
    15    9   37 2
    16   10   20 1
    17   10   34 am
    18   10   38 2
    19   11   12 1
    20   11   13 1
    21   12   14 1
    22   13   15 1
    23   14   21 1
    24   15   21 1
    25   16   18 1
    26   16   20 1
    27   17   19 1
    28   17   22 1
    29   18   30 1
    30   19   30 1
    31   20   29 1
    32   21   33 1
    33   22   23 1
    34   22   31 1
    35   24   25 1
    36   24   26 1
    37   25   27 1
    38   26   28 1
    39   27   32 1
    40   28   34 1
    41   29   30 1
    42    1   39 1
    43    2   40 1
    44    3   41 1
    45    4   42 1
    46    5   43 1
    47   11   44 1
    48   11   45 1
    49   12   46 1
    50   12   47 1
    51   13   48 1
    52   13   49 1
    53   14   50 1
    54   14   51 1
    55   15   52 1
    56   15   53 1
    57   16   54 1
    58   16   55 1
    59   17   56 1
    60   17   57 1
    61   18   58 1
    62   18   59 1
    63   19   60 1
    64   19   61 1
    65   20   62 1
    66   21   63 1
    67   23   64 1
    68   23   65 1
    69   24   66 1
    70   24   67 1
    71   25   68 1
    72   25   69 1
    73   26   70 1
    74   26   71 1
    75   27   72 1
    76   27   73 1
    77   28   74 1
    78   31   75 1
    79   31   76 1
    80   32   77 1
    81   32   78 1
    82   33   79 1
    83   34   80 1
@<TRIPOS>MOLECULE
1a46_ligand_50
   80    83     0     0     0
SMALL
USER_CHARGES

mmff94s_NoEstat = 82.10
@<TRIPOS>ATOM
      1 C1          9.0003   12.0144   -5.4225 C.ar      1 <0>        -0.1300
      2 C2          9.4537   11.5665   -4.1818 C.ar      1 <0>        -0.1323
      3 C3          7.8120   11.5127   -5.9535 C.ar      1 <0>        -0.1309
      4 C4          8.7189   10.6167   -3.4722 C.ar      1 <0>        -0.1275
      5 C5          7.0772   10.5629   -5.2439 C.ar      1 <0>        -0.1272
      6 C6          7.5355   10.1211   -4.0078 C.ar      1 <0>        -0.0843
      7 C7          6.3757    6.6257   -2.8269 C.2       1 <0>         0.6709
      8 C8          5.2358    2.3798    1.5634 C.2       1 <0>         0.4867
      9 C9          5.6457    1.7076    2.8411 C.2       1 <0>         0.5883
     10 C10         6.5256    3.6321   -1.6689 C.2       1 <0>         0.6572
     11 C11         5.0414    4.2280    7.0457 C.3       1 <0>        -0.0802
     12 C12         6.2748    4.0372    6.1670 C.3       1 <0>        -0.0765
     13 C13         3.8167    3.5224    6.4694 C.3       1 <0>        -0.0774
     14 C14         6.5482    2.5574    5.8946 C.3       1 <0>        -0.0953
     15 C15         4.0959    2.0437    6.1966 C.3       1 <0>        -0.0906
     16 C16         5.8400    3.2307   -4.0468 C.3       1 <0>        -0.0871
     17 C17         7.0291    7.4385   -5.1265 C.3       1 <0>        -0.0716
     18 C18         7.1120    3.6562   -4.7776 C.3       1 <0>         0.1333
     19 C19         6.8955    5.9616   -5.5361 C.3       1 <0>         0.1246
     20 C20         5.7868    4.1659   -2.8575 C.3       1 <0>         0.0606
     21 C21         5.3317    1.8242    5.3139 C.3       1 <0>         0.1012
     22 C22         7.1815    7.6752   -3.6055 C.3       1 <0>         0.1554
     23 C23         6.7451    9.0995   -3.2444 C.3       1 <0>        -0.0356
     24 C24         6.0158    5.3379    2.0114 C.3       1 <0>        -0.0795
     25 C25         6.7209    6.4716    2.7653 C.3       1 <0>        -0.1203
     26 C26         6.9719    4.2276    1.5544 C.3       1 <0>        -0.0920
     27 C27         5.7742    7.5909    3.1979 C.3       1 <0>         0.1502
     28 C28         6.2906    3.1130    0.7514 C.3       1 <0>         0.0224
     29 N1          6.5101    5.3360   -3.3173 N.am      1 <0>        -0.3553
     30 N2          7.3084    5.0783   -4.4472 N.3       1 <0>        -0.4320
     31 N3          8.5804    7.4980   -3.1893 N.3       1 <0>        -0.9031
     32 N4          6.5168    8.6391    3.8900 N.3       1 <0>        -0.9068
     33 N5          5.0674    2.2831    3.9484 N.am      1 <0>        -0.5526
     34 N6          5.7762    3.5917   -0.5046 N.am      1 <0>        -0.5576
     35 O1          5.6876    6.9159   -1.8485 O.2       1 <0>        -0.6710
     36 O2          4.0412    2.3628    1.2952 O.2       1 <0>        -0.4901
     37 O3          6.4307    0.7761    2.7710 O.2       1 <0>        -0.5902
     38 O4          7.6924    3.2783   -1.7917 O.2       1 <0>        -0.5833
     39 H1          9.5724   12.7539   -5.9752 H         1 <0>         0.1320
     40 H2         10.3789   11.9573   -3.7685 H         1 <0>         0.1324
     41 H3          7.4591   11.8615   -6.9197 H         1 <0>         0.1328
     42 H4          9.0800   10.2736   -2.5062 H         1 <0>         0.1324
     43 H5          6.1526   10.1776   -5.6655 H         1 <0>         0.1434
     44 H6          5.2471    3.8352    8.0492 H         1 <0>         0.0405
     45 H7          4.8314    5.2975    7.1597 H         1 <0>         0.0421
     46 H8          6.1338    4.5692    5.2184 H         1 <0>         0.0362
     47 H9          7.1467    4.4871    6.6556 H         1 <0>         0.0439
     48 H10         2.9773    3.6143    7.1680 H         1 <0>         0.0350
     49 H11         3.5117    4.0197    5.5408 H         1 <0>         0.0428
     50 H12         7.4029    2.4687    5.2130 H         1 <0>         0.0663
     51 H13         6.8401    2.0726    6.8349 H         1 <0>         0.0466
     52 H14         4.2467    1.5293    7.1543 H         1 <0>         0.0493
     53 H15         3.2132    1.5912    5.7287 H         1 <0>         0.0520
     54 H16         4.9736    3.4114   -4.6951 H         1 <0>         0.0915
     55 H17         5.8531    2.1713   -3.7729 H         1 <0>         0.0601
     56 H18         7.8805    7.8879   -5.6555 H         1 <0>         0.0688
     57 H19         6.1391    7.9685   -5.4921 H         1 <0>         0.0630
     58 H20         7.9647    3.0932   -4.3794 H         1 <0>         0.0807
     59 H21         7.0607    3.4497   -5.8523 H         1 <0>         0.0380
     60 H22         5.8545    5.7643   -5.8276 H         1 <0>         0.0484
     61 H23         7.5124    5.7838   -6.4252 H         1 <0>         0.0697
     62 H24         4.7698    4.4250   -2.5496 H         1 <0>         0.0843
     63 H25         5.5463    0.7533    5.2346 H         1 <0>         0.0831
     64 H26         6.8700    9.2469   -2.1701 H         1 <0>         0.0704
     65 H27         5.6795    9.2080   -3.4549 H         1 <0>         0.0718
     66 H28         5.2579    4.9142    2.6804 H         1 <0>         0.0606
     67 H29         5.4809    5.7546    1.1500 H         1 <0>         0.0458
     68 H30         7.2000    6.0392    3.6534 H         1 <0>         0.0375
     69 H31         7.5258    6.8807    2.1417 H         1 <0>         0.0392
     70 H32         7.4599    3.7926    2.4354 H         1 <0>         0.0606
     71 H33         7.7645    4.6634    0.9347 H         1 <0>         0.0579
     72 H34         4.9986    7.1962    3.8630 H         1 <0>         0.0571
     73 H35         5.2784    8.0349    2.3297 H         1 <0>         0.0503
     74 H36         7.0421    2.3587    0.4881 H         1 <0>         0.0993
     75 H37         9.1142    6.7979   -3.6499 H         1 <0>         0.3700
     76 H38         8.8693    7.9327   -2.3437 H         1 <0>         0.3660
     77 H39         5.9996    9.3711    4.3277 H         1 <0>         0.3465
     78 H40         7.4997    8.7018    3.7315 H         1 <0>         0.3446
     79 H41         4.4287    3.0611    3.8132 H         1 <0>         0.3148
     80 H42         4.8120    3.9176   -0.5391 H         1 <0>         0.3220
@<TRIPOS>BOND
     1    1    2 ar
     2    1    3 ar
     3    2    4 ar
     4    3    5 ar
     5    4    6 ar
     6    5    6 ar
     7    6   23 1
     8    7   22 1
     9    7   29 am
    10    7   35 2
    11    8    9 1
    12    8   28 1
    13    8   36 2
    14    9   33 am
    15    9   37 2
    16   10   20 1
    17   10   34 am
    18   10   38 2
    19   11   12 1
    20   11   13 1
    21   12   14 1
    22   13   15 1
    23   14   21 1
    24   15   21 1
    25   16   18 1
    26   16   20 1
    27   17   19 1
    28   17   22 1
    29   18   30 1
    30   19   30 1
    31   20   29 1
    32   21   33 1
    33   22   23 1
    34   22   31 1
    35   24   25 1
    36   24   26 1
    37   25   27 1
    38   26   28 1
    39   27   32 1
    40   28   34 1
    41   29   30 1
    42    1   39 1
    43    2   40 1
    44    3   41 1
    45    4   42 1
    46    5   43 1
    47   11   44 1
    48   11   45 1
    49   12   46 1
    50   12   47 1
    51   13   48 1
    52   13   49 1
    53   14   50 1
    54   14   51 1
    55   15   52 1
    56   15   53 1
    57   16   54 1
    58   16   55 1
    59   17   56 1
    60   17   57 1
    61   18   58 1
    62   18   59 1
    63   19   60 1
    64   19   61 1
    65   20   62 1
    66   21   63 1
    67   23   64 1
    68   23   65 1
    69   24   66 1
    70   24   67 1
    71   25   68 1
    72   25   69 1
    73   26   70 1
    74   26   71 1
    75   27   72 1
    76   27   73 1
    77   28   74 1
    78   31   75 1
    79   31   76 1
    80   32   77 1
    81   32   78 1
    82   33   79 1
    83   34   80 1
@<TRIPOS>MOLECULE
1a46_ligand_51
   80    83     0     0     0
SMALL
USER_CHARGES

mmff94s_NoEstat = 82.12
@<TRIPOS>ATOM
      1 C1         11.0121    9.2104   -7.9325 C.ar      1 <0>        -0.1300
      2 C2         11.5385    8.8832   -6.6829 C.ar      1 <0>        -0.1323
      3 C3          9.6345    9.1559   -8.1449 C.ar      1 <0>        -0.1309
      4 C4         10.6874    8.5015   -5.6458 C.ar      1 <0>        -0.1275
      5 C5          8.7834    8.7742   -7.1078 C.ar      1 <0>        -0.1272
      6 C6          9.3154    8.4495   -5.8650 C.ar      1 <0>        -0.0843
      7 C7          7.2411    6.0968   -3.6024 C.2       1 <0>         0.6709
      8 C8          5.2358    2.3798    1.5634 C.2       1 <0>         0.4867
      9 C9          5.6522    1.1980    2.3894 C.2       1 <0>         0.5883
     10 C10         6.5256    3.6321   -1.6689 C.2       1 <0>         0.6572
     11 C11         8.7227    2.0199    6.1701 C.3       1 <0>        -0.0802
     12 C12         8.9995    1.5375    4.7486 C.3       1 <0>        -0.0765
     13 C13         7.2401    2.3027    6.3972 C.3       1 <0>        -0.0774
     14 C14         8.1296    0.3339    4.3835 C.3       1 <0>        -0.0953
     15 C15         6.3745    1.0970    6.0285 C.3       1 <0>        -0.0906
     16 C16         5.2113    3.0694   -3.7284 C.3       1 <0>        -0.0871
     17 C17         7.6012    6.0599   -6.1012 C.3       1 <0>        -0.0716
     18 C18         6.3446    2.7580   -4.7039 C.3       1 <0>         0.1333
     19 C19         6.8355    4.7264   -6.0536 C.3       1 <0>         0.1246
     20 C20         5.7868    4.1659   -2.8575 C.3       1 <0>         0.0606
     21 C21         6.6330    0.5923    4.6026 C.3       1 <0>         0.1012
     22 C22         8.1773    6.5224   -4.7422 C.3       1 <0>         0.1554
     23 C23         8.4000    8.0389   -4.7494 C.3       1 <0>        -0.0356
     24 C24         6.0158    5.3379    2.0114 C.3       1 <0>        -0.0795
     25 C25         6.7209    6.4716    2.7653 C.3       1 <0>        -0.1203
     26 C26         6.9719    4.2276    1.5544 C.3       1 <0>        -0.0920
     27 C27         5.7742    7.5909    3.1979 C.3       1 <0>         0.1502
     28 C28         6.2906    3.1130    0.7514 C.3       1 <0>         0.0224
     29 N1          6.7674    4.7991   -3.7183 N.am      1 <0>        -0.3553
     30 N2          7.1280    4.0001   -4.8193 N.3       1 <0>        -0.4320
     31 N3          9.4643    5.8648   -4.4722 N.3       1 <0>        -0.9031
     32 N4          6.5168    8.6391    3.8900 N.3       1 <0>        -0.9068
     33 N5          6.1375    1.5625    3.6237 N.am      1 <0>        -0.5526
     34 N6          5.7762    3.5917   -0.5046 N.am      1 <0>        -0.5576
     35 O1          6.9567    6.8465   -2.6685 O.2       1 <0>        -0.6710
     36 O2          4.0675    2.7325    1.6631 O.2       1 <0>        -0.4901
     37 O3          5.5427    0.0877    1.8954 O.2       1 <0>        -0.5902
     38 O4          7.6924    3.2783   -1.7917 O.2       1 <0>        -0.5833
     39 H1         11.6747    9.5075   -8.7400 H         1 <0>         0.1320
     40 H2         12.6111    8.9257   -6.5176 H         1 <0>         0.1324
     41 H3          9.2248    9.4105   -9.1180 H         1 <0>         0.1328
     42 H4         11.1066    8.2484   -4.6756 H         1 <0>         0.1324
     43 H5          7.7115    8.7346   -7.2826 H         1 <0>         0.1434
     44 H6          9.0596    1.2576    6.8835 H         1 <0>         0.0405
     45 H7          9.3063    2.9251    6.3727 H         1 <0>         0.0421
     46 H8          8.8154    2.3561    4.0424 H         1 <0>         0.0362
     47 H9         10.0575    1.2680    4.6519 H         1 <0>         0.0439
     48 H10         7.0732    2.5664    7.4478 H         1 <0>         0.0350
     49 H11         6.9383    3.1721    5.8007 H         1 <0>         0.0428
     50 H12         8.3159    0.0588    3.3382 H         1 <0>         0.0663
     51 H13         8.4360   -0.5230    4.9969 H         1 <0>         0.0466
     52 H14         6.5799    0.2840    6.7364 H         1 <0>         0.0493
     53 H15         5.3172    1.3630    6.1484 H         1 <0>         0.0520
     54 H16         4.3507    3.4578   -4.2870 H         1 <0>         0.0915
     55 H17         4.8908    2.1856   -3.1683 H         1 <0>         0.0601
     56 H18         8.4120    5.9885   -6.8390 H         1 <0>         0.0688
     57 H19         6.9149    6.8257   -6.4876 H         1 <0>         0.0630
     58 H20         6.9926    1.9855   -4.2725 H         1 <0>         0.0807
     59 H21         5.9735    2.3729   -5.6602 H         1 <0>         0.0380
     60 H22         5.7592    4.9288   -6.1435 H         1 <0>         0.0484
     61 H23         7.1185    4.1245   -6.9255 H         1 <0>         0.0697
     62 H24         5.0406    4.8864   -2.5107 H         1 <0>         0.0843
     63 H25         6.0671   -0.3284    4.4260 H         1 <0>         0.0831
     64 H26         8.8151    8.3408   -3.7861 H         1 <0>         0.0704
     65 H27         7.4343    8.5386   -4.8464 H         1 <0>         0.0718
     66 H28         5.2579    4.9142    2.6804 H         1 <0>         0.0606
     67 H29         5.4809    5.7546    1.1500 H         1 <0>         0.0458
     68 H30         7.2000    6.0392    3.6534 H         1 <0>         0.0375
     69 H31         7.5258    6.8807    2.1417 H         1 <0>         0.0392
     70 H32         7.4599    3.7926    2.4354 H         1 <0>         0.0606
     71 H33         7.7645    4.6634    0.9347 H         1 <0>         0.0579
     72 H34         4.9986    7.1962    3.8630 H         1 <0>         0.0571
     73 H35         5.2784    8.0349    2.3297 H         1 <0>         0.0503
     74 H36         7.0421    2.3587    0.4881 H         1 <0>         0.0993
     75 H37         9.5764    4.9261   -4.7778 H         1 <0>         0.3700
     76 H38        10.0811    6.3037   -3.8286 H         1 <0>         0.3660
     77 H39         5.9996    9.3711    4.3277 H         1 <0>         0.3465
     78 H40         7.4997    8.7018    3.7315 H         1 <0>         0.3446
     79 H41         6.1529    2.5484    3.8672 H         1 <0>         0.3148
     80 H42         4.8120    3.9176   -0.5391 H         1 <0>         0.3220
@<TRIPOS>BOND
     1    1    2 ar
     2    1    3 ar
     3    2    4 ar
     4    3    5 ar
     5    4    6 ar
     6    5    6 ar
     7    6   23 1
     8    7   22 1
     9    7   29 am
    10    7   35 2
    11    8    9 1
    12    8   28 1
    13    8   36 2
    14    9   33 am
    15    9   37 2
    16   10   20 1
    17   10   34 am
    18   10   38 2
    19   11   12 1
    20   11   13 1
    21   12   14 1
    22   13   15 1
    23   14   21 1
    24   15   21 1
    25   16   18 1
    26   16   20 1
    27   17   19 1
    28   17   22 1
    29   18   30 1
    30   19   30 1
    31   20   29 1
    32   21   33 1
    33   22   23 1
    34   22   31 1
    35   24   25 1
    36   24   26 1
    37   25   27 1
    38   26   28 1
    39   27   32 1
    40   28   34 1
    41   29   30 1
    42    1   39 1
    43    2   40 1
    44    3   41 1
    45    4   42 1
    46    5   43 1
    47   11   44 1
    48   11   45 1
    49   12   46 1
    50   12   47 1
    51   13   48 1
    52   13   49 1
    53   14   50 1
    54   14   51 1
    55   15   52 1
    56   15   53 1
    57   16   54 1
    58   16   55 1
    59   17   56 1
    60   17   57 1
    61   18   58 1
    62   18   59 1
    63   19   60 1
    64   19   61 1
    65   20   62 1
    66   21   63 1
    67   23   64 1
    68   23   65 1
    69   24   66 1
    70   24   67 1
    71   25   68 1
    72   25   69 1
    73   26   70 1
    74   26   71 1
    75   27   72 1
    76   27   73 1
    77   28   74 1
    78   31   75 1
    79   31   76 1
    80   32   77 1
    81   32   78 1
    82   33   79 1
    83   34   80 1
@<TRIPOS>MOLECULE
1a46_ligand_52
   80    83     0     0     0
SMALL
USER_CHARGES

mmff94s_NoEstat = 82.15
@<TRIPOS>ATOM
      1 C1          5.9504   -1.3642  -10.1903 C.ar      1 <0>        -0.1300
      2 C2          6.6765   -1.8241   -9.0918 C.ar      1 <0>        -0.1323
      3 C3          5.5463   -0.0305  -10.2504 C.ar      1 <0>        -0.1309
      4 C4          6.9984   -0.9504   -8.0532 C.ar      1 <0>        -0.1275
      5 C5          5.8681    0.8432   -9.2119 C.ar      1 <0>        -0.1272
      6 C6          6.5921    0.3776   -8.1201 C.ar      1 <0>        -0.0843
      7 C7          6.1974    2.2868   -4.7798 C.2       1 <0>         0.6709
      8 C8          5.2358    2.3798    1.5634 C.2       1 <0>         0.4867
      9 C9          5.6457    1.7076    2.8411 C.2       1 <0>         0.5883
     10 C10         5.7098    2.8119   -1.6475 C.2       1 <0>         0.6572
     11 C11         5.0414    4.2280    7.0457 C.3       1 <0>        -0.0802
     12 C12         6.2748    4.0372    6.1670 C.3       1 <0>        -0.0765
     13 C13         3.8167    3.5224    6.4694 C.3       1 <0>        -0.0774
     14 C14         6.5482    2.5574    5.8946 C.3       1 <0>        -0.0953
     15 C15         4.0959    2.0437    6.1966 C.3       1 <0>        -0.0906
     16 C16         3.6723    3.8570   -2.6681 C.3       1 <0>        -0.0871
     17 C17         4.4858    1.7161   -6.5463 C.3       1 <0>        -0.0716
     18 C18         2.9535    2.6133   -3.1875 C.3       1 <0>         0.1333
     19 C19         3.4659    2.2898   -5.5476 C.3       1 <0>         0.1246
     20 C20         5.1372    3.5153   -2.8394 C.3       1 <0>         0.0606
     21 C21         5.3317    1.8242    5.3139 C.3       1 <0>         0.1012
     22 C22         5.8481    1.3265   -5.9256 C.3       1 <0>         0.1554
     23 C23         6.9383    1.3175   -7.0029 C.3       1 <0>        -0.0356
     24 C24         6.0158    5.3379    2.0114 C.3       1 <0>        -0.0795
     25 C25         6.7209    6.4716    2.7653 C.3       1 <0>        -0.1203
     26 C26         6.9719    4.2276    1.5544 C.3       1 <0>        -0.0920
     27 C27         5.7742    7.5909    3.1979 C.3       1 <0>         0.1502
     28 C28         6.2906    3.1130    0.7514 C.3       1 <0>         0.0224
     29 N1          5.1345    2.5635   -3.9339 N.am      1 <0>        -0.3553
     30 N2          3.8653    2.0037   -4.1710 N.3       1 <0>        -0.4320
     31 N3          5.7803   -0.0123   -5.3216 N.3       1 <0>        -0.9031
     32 N4          6.5168    8.6391    3.8900 N.3       1 <0>        -0.9068
     33 N5          5.0674    2.2831    3.9484 N.am      1 <0>        -0.5526
     34 N6          5.7762    3.5917   -0.5046 N.am      1 <0>        -0.5576
     35 O1          7.3278    2.7504   -4.6301 O.2       1 <0>        -0.6710
     36 O2          4.0412    2.3628    1.2952 O.2       1 <0>        -0.4901
     37 O3          6.4307    0.7761    2.7710 O.2       1 <0>        -0.5902
     38 O4          6.0670    1.6440   -1.7490 O.2       1 <0>        -0.5833
     39 H1          5.6997   -2.0446  -10.9989 H         1 <0>         0.1320
     40 H2          6.9911   -2.8626   -9.0451 H         1 <0>         0.1324
     41 H3          4.9808    0.3274  -11.1059 H         1 <0>         0.1328
     42 H4          7.5644   -1.3176   -7.2012 H         1 <0>         0.1324
     43 H5          5.5489    1.8806   -9.2673 H         1 <0>         0.1434
     44 H6          5.2471    3.8352    8.0492 H         1 <0>         0.0405
     45 H7          4.8314    5.2975    7.1597 H         1 <0>         0.0421
     46 H8          6.1338    4.5692    5.2184 H         1 <0>         0.0362
     47 H9          7.1467    4.4871    6.6556 H         1 <0>         0.0439
     48 H10         2.9773    3.6143    7.1680 H         1 <0>         0.0350
     49 H11         3.5117    4.0197    5.5408 H         1 <0>         0.0428
     50 H12         7.4029    2.4687    5.2130 H         1 <0>         0.0663
     51 H13         6.8401    2.0726    6.8349 H         1 <0>         0.0466
     52 H14         4.2467    1.5293    7.1543 H         1 <0>         0.0493
     53 H15         3.2132    1.5912    5.7287 H         1 <0>         0.0520
     54 H16         3.4181    4.7133   -3.3051 H         1 <0>         0.0915
     55 H17         3.3944    4.0971   -1.6373 H         1 <0>         0.0601
     56 H18         4.0497    0.8441   -7.0524 H         1 <0>         0.0688
     57 H19         4.6431    2.4675   -7.3320 H         1 <0>         0.0630
     58 H20         2.8170    1.9026   -2.3635 H         1 <0>         0.0807
     59 H21         1.9588    2.8453   -3.5837 H         1 <0>         0.0380
     60 H22         3.3744    3.3723   -5.7123 H         1 <0>         0.0484
     61 H23         2.4818    1.8533   -5.7569 H         1 <0>         0.0697
     62 H24         5.7646    4.3810   -3.0694 H         1 <0>         0.0843
     63 H25         5.5463    0.7533    5.2346 H         1 <0>         0.0831
     64 H26         7.8868    1.0311   -6.5450 H         1 <0>         0.0704
     65 H27         7.0672    2.3317   -7.3854 H         1 <0>         0.0718
     66 H28         5.2579    4.9142    2.6804 H         1 <0>         0.0606
     67 H29         5.4809    5.7546    1.1500 H         1 <0>         0.0458
     68 H30         7.2000    6.0392    3.6534 H         1 <0>         0.0375
     69 H31         7.5258    6.8807    2.1417 H         1 <0>         0.0392
     70 H32         7.4599    3.7926    2.4354 H         1 <0>         0.0606
     71 H33         7.7645    4.6634    0.9347 H         1 <0>         0.0579
     72 H34         4.9986    7.1962    3.8630 H         1 <0>         0.0571
     73 H35         5.2784    8.0349    2.3297 H         1 <0>         0.0503
     74 H36         7.0421    2.3587    0.4881 H         1 <0>         0.0993
     75 H37         4.9287   -0.2795   -4.8849 H         1 <0>         0.3700
     76 H38         6.6336   -0.5056   -5.1950 H         1 <0>         0.3660
     77 H39         5.9996    9.3711    4.3277 H         1 <0>         0.3465
     78 H40         7.4997    8.7018    3.7315 H         1 <0>         0.3446
     79 H41         4.4287    3.0611    3.8132 H         1 <0>         0.3148
     80 H42         5.4441    4.5531   -0.5557 H         1 <0>         0.3220
@<TRIPOS>BOND
     1    1    2 ar
     2    1    3 ar
     3    2    4 ar
     4    3    5 ar
     5    4    6 ar
     6    5    6 ar
     7    6   23 1
     8    7   22 1
     9    7   29 am
    10    7   35 2
    11    8    9 1
    12    8   28 1
    13    8   36 2
    14    9   33 am
    15    9   37 2
    16   10   20 1
    17   10   34 am
    18   10   38 2
    19   11   12 1
    20   11   13 1
    21   12   14 1
    22   13   15 1
    23   14   21 1
    24   15   21 1
    25   16   18 1
    26   16   20 1
    27   17   19 1
    28   17   22 1
    29   18   30 1
    30   19   30 1
    31   20   29 1
    32   21   33 1
    33   22   23 1
    34   22   31 1
    35   24   25 1
    36   24   26 1
    37   25   27 1
    38   26   28 1
    39   27   32 1
    40   28   34 1
    41   29   30 1
    42    1   39 1
    43    2   40 1
    44    3   41 1
    45    4   42 1
    46    5   43 1
    47   11   44 1
    48   11   45 1
    49   12   46 1
    50   12   47 1
    51   13   48 1
    52   13   49 1
    53   14   50 1
    54   14   51 1
    55   15   52 1
    56   15   53 1
    57   16   54 1
    58   16   55 1
    59   17   56 1
    60   17   57 1
    61   18   58 1
    62   18   59 1
    63   19   60 1
    64   19   61 1
    65   20   62 1
    66   21   63 1
    67   23   64 1
    68   23   65 1
    69   24   66 1
    70   24   67 1
    71   25   68 1
    72   25   69 1
    73   26   70 1
    74   26   71 1
    75   27   72 1
    76   27   73 1
    77   28   74 1
    78   31   75 1
    79   31   76 1
    80   32   77 1
    81   32   78 1
    82   33   79 1
    83   34   80 1
@<TRIPOS>MOLECULE
1a46_ligand_53
   80    83     0     0     0
SMALL
USER_CHARGES

mmff94s_NoEstat = 82.16
@<TRIPOS>ATOM
      1 C1         11.0121    9.2104   -7.9325 C.ar      1 <0>        -0.1300
      2 C2         11.5385    8.8832   -6.6829 C.ar      1 <0>        -0.1323
      3 C3          9.6345    9.1559   -8.1449 C.ar      1 <0>        -0.1309
      4 C4         10.6874    8.5015   -5.6458 C.ar      1 <0>        -0.1275
      5 C5          8.7834    8.7742   -7.1078 C.ar      1 <0>        -0.1272
      6 C6          9.3154    8.4495   -5.8650 C.ar      1 <0>        -0.0843
      7 C7          7.2411    6.0968   -3.6024 C.2       1 <0>         0.6709
      8 C8          5.2358    2.3798    1.5634 C.2       1 <0>         0.4867
      9 C9          5.6522    1.1980    2.3894 C.2       1 <0>         0.5883
     10 C10         6.5256    3.6321   -1.6689 C.2       1 <0>         0.6572
     11 C11         5.8911   -3.1928    0.1399 C.3       1 <0>        -0.0802
     12 C12         4.7903   -2.5697    0.9943 C.3       1 <0>        -0.0765
     13 C13         7.0788   -2.2502   -0.0351 C.3       1 <0>        -0.0774
     14 C14         5.3303   -2.0814    2.3392 C.3       1 <0>        -0.0953
     15 C15         7.6136   -1.7629    1.3123 C.3       1 <0>        -0.0906
     16 C16         5.2113    3.0694   -3.7284 C.3       1 <0>        -0.0871
     17 C17         7.6012    6.0599   -6.1012 C.3       1 <0>        -0.0716
     18 C18         6.3446    2.7580   -4.7039 C.3       1 <0>         0.1333
     19 C19         6.8355    4.7264   -6.0536 C.3       1 <0>         0.1246
     20 C20         5.7868    4.1659   -2.8575 C.3       1 <0>         0.0606
     21 C21         6.5260   -1.1310    2.1912 C.3       1 <0>         0.1012
     22 C22         8.1773    6.5224   -4.7422 C.3       1 <0>         0.1554
     23 C23         8.4000    8.0389   -4.7494 C.3       1 <0>        -0.0356
     24 C24         6.0158    5.3379    2.0114 C.3       1 <0>        -0.0795
     25 C25         6.7209    6.4716    2.7653 C.3       1 <0>        -0.1203
     26 C26         6.9719    4.2276    1.5544 C.3       1 <0>        -0.0920
     27 C27         5.7742    7.5909    3.1979 C.3       1 <0>         0.1502
     28 C28         6.2906    3.1130    0.7514 C.3       1 <0>         0.0224
     29 N1          6.7674    4.7991   -3.7183 N.am      1 <0>        -0.3553
     30 N2          7.1280    4.0001   -4.8193 N.3       1 <0>        -0.4320
     31 N3          9.4643    5.8648   -4.4722 N.3       1 <0>        -0.9031
     32 N4          6.5168    8.6391    3.8900 N.3       1 <0>        -0.9068
     33 N5          6.0911    0.1457    1.6201 N.am      1 <0>        -0.5526
     34 N6          5.7762    3.5917   -0.5046 N.am      1 <0>        -0.5576
     35 O1          6.9567    6.8465   -2.6685 O.2       1 <0>        -0.6710
     36 O2          4.0675    2.7325    1.6631 O.2       1 <0>        -0.4901
     37 O3          5.5431    1.2807    3.6019 O.2       1 <0>        -0.5902
     38 O4          7.6924    3.2783   -1.7917 O.2       1 <0>        -0.5833
     39 H1         11.6747    9.5075   -8.7400 H         1 <0>         0.1320
     40 H2         12.6111    8.9257   -6.5176 H         1 <0>         0.1324
     41 H3          9.2248    9.4105   -9.1180 H         1 <0>         0.1328
     42 H4         11.1066    8.2484   -4.6756 H         1 <0>         0.1324
     43 H5          7.7115    8.7346   -7.2826 H         1 <0>         0.1434
     44 H6          6.2329   -4.1227    0.6110 H         1 <0>         0.0405
     45 H7          5.4871   -3.4636   -0.8422 H         1 <0>         0.0421
     46 H8          4.3356   -1.7325    0.4511 H         1 <0>         0.0362
     47 H9          3.9961   -3.3058    1.1637 H         1 <0>         0.0439
     48 H10         7.8774   -2.7635   -0.5827 H         1 <0>         0.0350
     49 H11         6.7768   -1.3914   -0.6467 H         1 <0>         0.0428
     50 H12         4.5228   -1.5882    2.8938 H         1 <0>         0.0663
     51 H13         5.6388   -2.9510    2.9333 H         1 <0>         0.0466
     52 H14         8.0534   -2.6142    1.8474 H         1 <0>         0.0493
     53 H15         8.4235   -1.0439    1.1392 H         1 <0>         0.0520
     54 H16         4.3507    3.4578   -4.2870 H         1 <0>         0.0915
     55 H17         4.8908    2.1856   -3.1683 H         1 <0>         0.0601
     56 H18         8.4120    5.9885   -6.8390 H         1 <0>         0.0688
     57 H19         6.9149    6.8257   -6.4876 H         1 <0>         0.0630
     58 H20         6.9926    1.9855   -4.2725 H         1 <0>         0.0807
     59 H21         5.9735    2.3729   -5.6602 H         1 <0>         0.0380
     60 H22         5.7592    4.9288   -6.1435 H         1 <0>         0.0484
     61 H23         7.1185    4.1245   -6.9255 H         1 <0>         0.0697
     62 H24         5.0406    4.8864   -2.5107 H         1 <0>         0.0843
     63 H25         6.9368   -0.8941    3.1782 H         1 <0>         0.0831
     64 H26         8.8151    8.3408   -3.7861 H         1 <0>         0.0704
     65 H27         7.4343    8.5386   -4.8464 H         1 <0>         0.0718
     66 H28         5.2579    4.9142    2.6804 H         1 <0>         0.0606
     67 H29         5.4809    5.7546    1.1500 H         1 <0>         0.0458
     68 H30         7.2000    6.0392    3.6534 H         1 <0>         0.0375
     69 H31         7.5258    6.8807    2.1417 H         1 <0>         0.0392
     70 H32         7.4599    3.7926    2.4354 H         1 <0>         0.0606
     71 H33         7.7645    4.6634    0.9347 H         1 <0>         0.0579
     72 H34         4.9986    7.1962    3.8630 H         1 <0>         0.0571
     73 H35         5.2784    8.0349    2.3297 H         1 <0>         0.0503
     74 H36         7.0421    2.3587    0.4881 H         1 <0>         0.0993
     75 H37         9.5764    4.9261   -4.7778 H         1 <0>         0.3700
     76 H38        10.0811    6.3037   -3.8286 H         1 <0>         0.3660
     77 H39         5.9996    9.3711    4.3277 H         1 <0>         0.3465
     78 H40         7.4997    8.7018    3.7315 H         1 <0>         0.3446
     79 H41         6.1146    0.2589    0.6111 H         1 <0>         0.3148
     80 H42         4.8120    3.9176   -0.5391 H         1 <0>         0.3220
@<TRIPOS>BOND
     1    1    2 ar
     2    1    3 ar
     3    2    4 ar
     4    3    5 ar
     5    4    6 ar
     6    5    6 ar
     7    6   23 1
     8    7   22 1
     9    7   29 am
    10    7   35 2
    11    8    9 1
    12    8   28 1
    13    8   36 2
    14    9   33 am
    15    9   37 2
    16   10   20 1
    17   10   34 am
    18   10   38 2
    19   11   12 1
    20   11   13 1
    21   12   14 1
    22   13   15 1
    23   14   21 1
    24   15   21 1
    25   16   18 1
    26   16   20 1
    27   17   19 1
    28   17   22 1
    29   18   30 1
    30   19   30 1
    31   20   29 1
    32   21   33 1
    33   22   23 1
    34   22   31 1
    35   24   25 1
    36   24   26 1
    37   25   27 1
    38   26   28 1
    39   27   32 1
    40   28   34 1
    41   29   30 1
    42    1   39 1
    43    2   40 1
    44    3   41 1
    45    4   42 1
    46    5   43 1
    47   11   44 1
    48   11   45 1
    49   12   46 1
    50   12   47 1
    51   13   48 1
    52   13   49 1
    53   14   50 1
    54   14   51 1
    55   15   52 1
    56   15   53 1
    57   16   54 1
    58   16   55 1
    59   17   56 1
    60   17   57 1
    61   18   58 1
    62   18   59 1
    63   19   60 1
    64   19   61 1
    65   20   62 1
    66   21   63 1
    67   23   64 1
    68   23   65 1
    69   24   66 1
    70   24   67 1
    71   25   68 1
    72   25   69 1
    73   26   70 1
    74   26   71 1
    75   27   72 1
    76   27   73 1
    77   28   74 1
    78   31   75 1
    79   31   76 1
    80   32   77 1
    81   32   78 1
    82   33   79 1
    83   34   80 1
@<TRIPOS>MOLECULE
1a46_ligand_54
   80    83     0     0     0
SMALL
USER_CHARGES

mmff94s_NoEstat = 82.17
@<TRIPOS>ATOM
      1 C1         -6.8775    5.0901  -14.7309 C.ar      1 <0>        -0.1300
      2 C2         -5.5917    5.6294  -14.7709 C.ar      1 <0>        -0.1323
      3 C3         -7.3842    4.5832  -13.5342 C.ar      1 <0>        -0.1309
      4 C4         -4.8126    5.6616  -13.6144 C.ar      1 <0>        -0.1275
      5 C5         -6.6051    4.6154  -12.3777 C.ar      1 <0>        -0.1272
      6 C6         -5.3244    5.1544  -12.4253 C.ar      1 <0>        -0.0843
      7 C7         -2.7863    3.9453   -9.7694 C.2       1 <0>         0.6709
      8 C8          2.7796    3.2097   -6.1637 C.2       1 <0>         0.4867
      9 C9          2.0233    2.5606   -5.0416 C.2       1 <0>         0.5883
     10 C10        -0.0591    2.8141   -8.5012 C.2       1 <0>         0.6572
     11 C11         0.9627   -2.2745   -2.8709 C.3       1 <0>        -0.0802
     12 C12        -0.0613   -1.2731   -3.3975 C.3       1 <0>        -0.0765
     13 C13         2.1915   -1.5746   -2.2973 C.3       1 <0>        -0.0774
     14 C14         0.5596   -0.3112   -4.4090 C.3       1 <0>        -0.0953
     15 C15         2.8154   -0.6136   -3.3079 C.3       1 <0>        -0.0906
     16 C16        -1.6498    0.9246   -8.0710 C.3       1 <0>        -0.0871
     17 C17        -4.5618    2.6685  -11.0314 C.3       1 <0>        -0.0716
     18 C18        -1.8952    0.4385   -9.4981 C.3       1 <0>         0.1333
     19 C19        -3.9477    1.4257  -10.3641 C.3       1 <0>         0.1246
     20 C20        -1.4789    2.4202   -8.2321 C.3       1 <0>         0.0606
     21 C21         1.7865    0.3978   -3.8249 C.3       1 <0>         0.1012
     22 C22        -3.6459    3.9150  -11.0410 C.3       1 <0>         0.1554
     23 C23        -4.4863    5.1891  -11.1812 C.3       1 <0>        -0.0356
     24 C24         1.5857    6.0302   -6.5865 C.3       1 <0>        -0.0795
     25 C25         1.6811    7.5259   -6.9095 C.3       1 <0>        -0.1203
     26 C26         2.1570    5.1335   -7.6933 C.3       1 <0>        -0.0920
     27 C27         1.0885    8.4192   -5.8200 C.3       1 <0>         0.1502
     28 C28         2.0196    3.6328   -7.4097 C.3       1 <0>         0.0224
     29 N1         -2.2374    2.7178   -9.4321 N.am      1 <0>        -0.3553
     30 N2         -2.5018    1.5760  -10.2111 N.3       1 <0>        -0.4320
     31 N3         -2.6997    3.8562  -12.1647 N.3       1 <0>        -0.9031
     32 N4          1.1980    9.8225   -6.2046 N.3       1 <0>        -0.9068
     33 N5          2.3972    1.2522   -4.8415 N.am      1 <0>        -0.5526
     34 N6          0.6426    3.2153   -7.3763 N.am      1 <0>        -0.5576
     35 O1         -2.5986    4.9773   -9.1254 O.2       1 <0>        -0.6710
     36 O2          3.9949    3.2835   -6.0334 O.2       1 <0>        -0.4901
     37 O3          1.1778    3.2234   -4.4630 O.2       1 <0>        -0.5902
     38 O4          0.3766    2.7593   -9.6452 O.2       1 <0>        -0.5833
     39 H1         -7.4841    5.0650  -15.6314 H         1 <0>         0.1320
     40 H2         -5.1973    6.0241  -15.7027 H         1 <0>         0.1324
     41 H3         -8.3853    4.1632  -13.5032 H         1 <0>         0.1328
     42 H4         -3.8120    6.0837  -13.6551 H         1 <0>         0.1324
     43 H5         -7.0082    4.2181  -11.4499 H         1 <0>         0.1434
     44 H6          0.5021   -2.9019   -2.0995 H         1 <0>         0.0405
     45 H7          1.2707   -2.9423   -3.6849 H         1 <0>         0.0421
     46 H8         -0.8956   -1.8095   -3.8633 H         1 <0>         0.0362
     47 H9         -0.4774   -0.7008   -2.5591 H         1 <0>         0.0439
     48 H10         1.9085   -1.0201   -1.3941 H         1 <0>         0.0350
     49 H11         2.9331   -2.3222   -1.9937 H         1 <0>         0.0428
     50 H12         0.8420   -0.8659   -5.3135 H         1 <0>         0.0663
     51 H13        -0.1879    0.4288   -4.7199 H         1 <0>         0.0466
     52 H14         3.6575   -0.0867   -2.8429 H         1 <0>         0.0493
     53 H15         3.2325   -1.1867   -4.1465 H         1 <0>         0.0520
     54 H16        -2.5391    0.7200   -7.4620 H         1 <0>         0.0915
     55 H17        -0.7905    0.4314   -7.6064 H         1 <0>         0.0601
     56 H18        -4.8571    2.4214  -12.0603 H         1 <0>         0.0688
     57 H19        -5.4956    2.9043  -10.5031 H         1 <0>         0.0630
     58 H20        -0.9338    0.2117   -9.9745 H         1 <0>         0.0807
     59 H21        -2.4949   -0.4779   -9.5259 H         1 <0>         0.0380
     60 H22        -4.4307    1.2677   -9.3899 H         1 <0>         0.0484
     61 H23        -4.1761    0.5456  -10.9773 H         1 <0>         0.0697
     62 H24        -1.8462    2.9971   -7.3786 H         1 <0>         0.0843
     63 H25         1.4778    1.0626   -3.0099 H         1 <0>         0.0831
     64 H26        -3.8200    6.0535  -11.1955 H         1 <0>         0.0704
     65 H27        -5.1199    5.2949  -10.2986 H         1 <0>         0.0718
     66 H28         2.1358    5.8550   -5.6547 H         1 <0>         0.0606
     67 H29         0.5392    5.7688   -6.3906 H         1 <0>         0.0458
     68 H30         2.7419    7.7748   -7.0444 H         1 <0>         0.0375
     69 H31         1.1870    7.7255   -7.8687 H         1 <0>         0.0392
     70 H32         3.2164    5.3787   -7.8393 H         1 <0>         0.0606
     71 H33         1.6466    5.3535   -8.6384 H         1 <0>         0.0579
     72 H34         1.6137    8.2608   -4.8719 H         1 <0>         0.0571
     73 H35         0.0315    8.1861   -5.6617 H         1 <0>         0.0503
     74 H36         2.4714    3.0747   -8.2388 H         1 <0>         0.0993
     75 H37        -2.3461    2.9648  -12.4248 H         1 <0>         0.3700
     76 H38        -2.3015    4.7109  -12.4784 H         1 <0>         0.3660
     77 H39         0.9557   10.5154   -5.5293 H         1 <0>         0.3465
     78 H40         1.3102   10.0373   -7.1723 H         1 <0>         0.3446
     79 H41         3.1304    0.8623   -5.4263 H         1 <0>         0.3148
     80 H42         0.1596    3.2148   -6.4798 H         1 <0>         0.3220
@<TRIPOS>BOND
     1    1    2 ar
     2    1    3 ar
     3    2    4 ar
     4    3    5 ar
     5    4    6 ar
     6    5    6 ar
     7    6   23 1
     8    7   22 1
     9    7   29 am
    10    7   35 2
    11    8    9 1
    12    8   28 1
    13    8   36 2
    14    9   33 am
    15    9   37 2
    16   10   20 1
    17   10   34 am
    18   10   38 2
    19   11   12 1
    20   11   13 1
    21   12   14 1
    22   13   15 1
    23   14   21 1
    24   15   21 1
    25   16   18 1
    26   16   20 1
    27   17   19 1
    28   17   22 1
    29   18   30 1
    30   19   30 1
    31   20   29 1
    32   21   33 1
    33   22   23 1
    34   22   31 1
    35   24   25 1
    36   24   26 1
    37   25   27 1
    38   26   28 1
    39   27   32 1
    40   28   34 1
    41   29   30 1
    42    1   39 1
    43    2   40 1
    44    3   41 1
    45    4   42 1
    46    5   43 1
    47   11   44 1
    48   11   45 1
    49   12   46 1
    50   12   47 1
    51   13   48 1
    52   13   49 1
    53   14   50 1
    54   14   51 1
    55   15   52 1
    56   15   53 1
    57   16   54 1
    58   16   55 1
    59   17   56 1
    60   17   57 1
    61   18   58 1
    62   18   59 1
    63   19   60 1
    64   19   61 1
    65   20   62 1
    66   21   63 1
    67   23   64 1
    68   23   65 1
    69   24   66 1
    70   24   67 1
    71   25   68 1
    72   25   69 1
    73   26   70 1
    74   26   71 1
    75   27   72 1
    76   27   73 1
    77   28   74 1
    78   31   75 1
    79   31   76 1
    80   32   77 1
    81   32   78 1
    82   33   79 1
    83   34   80 1
@<TRIPOS>MOLECULE
1a46_ligand_55
   80    83     0     0     0
SMALL
USER_CHARGES

mmff94s_NoEstat = 82.17
@<TRIPOS>ATOM
      1 C1          5.6982   13.0256   -2.9158 C.ar      1 <0>        -0.1300
      2 C2          6.1379   12.4463   -1.7256 C.ar      1 <0>        -0.1323
      3 C3          4.9080   12.2902   -3.7992 C.ar      1 <0>        -0.1309
      4 C4          5.7876   11.1315   -1.4188 C.ar      1 <0>        -0.1275
      5 C5          4.5577   10.9753   -3.4925 C.ar      1 <0>        -0.1272
      6 C6          4.9998   10.4046   -2.3043 C.ar      1 <0>        -0.0843
      7 C7          5.2783    6.5491   -2.1791 C.2       1 <0>         0.6709
      8 C8          5.2358    2.3798    1.5634 C.2       1 <0>         0.4867
      9 C9          4.0737    1.7586    0.8450 C.2       1 <0>         0.5883
     10 C10         6.5256    3.6321   -1.6689 C.2       1 <0>         0.6572
     11 C11         4.8597   -2.3625   -1.7617 C.3       1 <0>        -0.0802
     12 C12         5.2794   -1.0401   -2.3982 C.3       1 <0>        -0.0765
     13 C13         4.2715   -2.1623   -0.3676 C.3       1 <0>        -0.0774
     14 C14         4.1312   -0.0301   -2.4063 C.3       1 <0>        -0.0953
     15 C15         3.1253   -1.1498   -0.3806 C.3       1 <0>        -0.0906
     16 C16         6.3772    3.6983   -4.1707 C.3       1 <0>        -0.0871
     17 C17         5.8129    8.1649   -4.0442 C.3       1 <0>        -0.0716
     18 C18         7.4333    4.7567   -4.4831 C.3       1 <0>         0.1333
     19 C19         6.3652    6.9275   -4.7727 C.3       1 <0>         0.1246
     20 C20         5.7868    4.1659   -2.8575 C.3       1 <0>         0.0606
     21 C21         3.5216    0.1899   -1.0153 C.3       1 <0>         0.1012
     22 C22         5.6591    7.9981   -2.5141 C.3       1 <0>         0.1554
     23 C23         4.6229    8.9902   -1.9743 C.3       1 <0>        -0.0356
     24 C24         8.0800    4.9598    0.7851 C.3       1 <0>        -0.0795
     25 C25         8.7880    6.0338    1.6192 C.3       1 <0>        -0.1203
     26 C26         6.9719    4.2276    1.5544 C.3       1 <0>        -0.0920
     27 C27         9.9095    6.7454    0.8629 C.3       1 <0>         0.1502
     28 C28         6.2906    3.1130    0.7514 C.3       1 <0>         0.0224
     29 N1          6.0028    5.5999   -2.8834 N.am      1 <0>        -0.3553
     30 N2          6.9706    5.9918   -3.8269 N.3       1 <0>        -0.4320
     31 N3          6.9384    8.2454   -1.8330 N.3       1 <0>        -0.9031
     32 N4         10.5470    7.7366    1.7233 N.3       1 <0>        -0.9068
     33 N5          4.4695    0.8988   -0.1529 N.am      1 <0>        -0.5526
     34 N6          5.7762    3.5917   -0.5046 N.am      1 <0>        -0.5576
     35 O1          4.4149    6.2702   -1.3473 O.2       1 <0>        -0.6710
     36 O2          5.3022    2.1819    2.7699 O.2       1 <0>        -0.4901
     37 O3          2.9489    2.0822    1.1900 O.2       1 <0>        -0.5902
     38 O4          7.6924    3.2783   -1.7917 O.2       1 <0>        -0.5833
     39 H1          5.9710   14.0494   -3.1547 H         1 <0>         0.1320
     40 H2          6.7531   13.0191   -1.0378 H         1 <0>         0.1324
     41 H3          4.5659   12.7413   -4.7260 H         1 <0>         0.1328
     42 H4          6.1348   10.6884   -0.4892 H         1 <0>         0.1324
     43 H5          3.9418   10.4100   -4.1868 H         1 <0>         0.1434
     44 H6          4.1159   -2.8528   -2.4019 H         1 <0>         0.0405
     45 H7          5.7231   -3.0350   -1.7048 H         1 <0>         0.0421
     46 H8          6.1342   -0.6256   -1.8502 H         1 <0>         0.0362
     47 H9          5.6182   -1.2183   -3.4252 H         1 <0>         0.0439
     48 H10         3.9090   -3.1215    0.0193 H         1 <0>         0.0350
     49 H11         5.0588   -1.8223    0.3160 H         1 <0>         0.0428
     50 H12         4.4917    0.9217   -2.8150 H         1 <0>         0.0663
     51 H13         3.3477   -0.3907   -3.0849 H         1 <0>         0.0466
     52 H14         2.2839   -1.5748   -0.9427 H         1 <0>         0.0493
     53 H15         2.7736   -0.9912    0.6460 H         1 <0>         0.0520
     54 H16         5.6043    3.7190   -4.9489 H         1 <0>         0.0915
     55 H17         6.7998    2.6898   -4.1286 H         1 <0>         0.0601
     56 H18         6.4556    9.0301   -4.2569 H         1 <0>         0.0688
     57 H19         4.8364    8.4048   -4.4864 H         1 <0>         0.0630
     58 H20         8.3862    4.4645   -4.0255 H         1 <0>         0.0807
     59 H21         7.6091    4.8610   -5.5594 H         1 <0>         0.0380
     60 H22         5.5493    6.4477   -5.3309 H         1 <0>         0.0484
     61 H23         7.1061    7.2537   -5.5124 H         1 <0>         0.0697
     62 H24         4.7253    3.9276   -2.7453 H         1 <0>         0.0843
     63 H25         2.6430    0.8387   -1.0930 H         1 <0>         0.0831
     64 H26         4.5381    8.8614   -0.8937 H         1 <0>         0.0704
     65 H27         3.6462    8.7482   -2.3975 H         1 <0>         0.0718
     66 H28         7.6494    5.4516   -0.0948 H         1 <0>         0.0606
     67 H29         8.8216    4.2418    0.4157 H         1 <0>         0.0458
     68 H30         8.0356    6.7709    1.9287 H         1 <0>         0.0375
     69 H31         9.1825    5.5824    2.5383 H         1 <0>         0.0392
     70 H32         6.2171    4.9575    1.8728 H         1 <0>         0.0606
     71 H33         7.3929    3.7874    2.4660 H         1 <0>         0.0579
     72 H34         9.5108    7.2416   -0.0285 H         1 <0>         0.0571
     73 H35        10.6706    6.0303    0.5375 H         1 <0>         0.0503
     74 H36         7.0421    2.3587    0.4881 H         1 <0>         0.0993
     75 H37         7.7703    7.9574   -2.2937 H         1 <0>         0.3700
     76 H38         6.9090    8.4964   -0.8720 H         1 <0>         0.3660
     77 H39        11.2163    8.3531    1.3147 H         1 <0>         0.3465
     78 H40        10.4498    7.6340    2.7108 H         1 <0>         0.3446
     79 H41         5.4635    0.7487   -0.2981 H         1 <0>         0.3148
     80 H42         4.8120    3.9176   -0.5391 H         1 <0>         0.3220
@<TRIPOS>BOND
     1    1    2 ar
     2    1    3 ar
     3    2    4 ar
     4    3    5 ar
     5    4    6 ar
     6    5    6 ar
     7    6   23 1
     8    7   22 1
     9    7   29 am
    10    7   35 2
    11    8    9 1
    12    8   28 1
    13    8   36 2
    14    9   33 am
    15    9   37 2
    16   10   20 1
    17   10   34 am
    18   10   38 2
    19   11   12 1
    20   11   13 1
    21   12   14 1
    22   13   15 1
    23   14   21 1
    24   15   21 1
    25   16   18 1
    26   16   20 1
    27   17   19 1
    28   17   22 1
    29   18   30 1
    30   19   30 1
    31   20   29 1
    32   21   33 1
    33   22   23 1
    34   22   31 1
    35   24   25 1
    36   24   26 1
    37   25   27 1
    38   26   28 1
    39   27   32 1
    40   28   34 1
    41   29   30 1
    42    1   39 1
    43    2   40 1
    44    3   41 1
    45    4   42 1
    46    5   43 1
    47   11   44 1
    48   11   45 1
    49   12   46 1
    50   12   47 1
    51   13   48 1
    52   13   49 1
    53   14   50 1
    54   14   51 1
    55   15   52 1
    56   15   53 1
    57   16   54 1
    58   16   55 1
    59   17   56 1
    60   17   57 1
    61   18   58 1
    62   18   59 1
    63   19   60 1
    64   19   61 1
    65   20   62 1
    66   21   63 1
    67   23   64 1
    68   23   65 1
    69   24   66 1
    70   24   67 1
    71   25   68 1
    72   25   69 1
    73   26   70 1
    74   26   71 1
    75   27   72 1
    76   27   73 1
    77   28   74 1
    78   31   75 1
    79   31   76 1
    80   32   77 1
    81   32   78 1
    82   33   79 1
    83   34   80 1
@<TRIPOS>MOLECULE
1a46_ligand_56
   80    83     0     0     0
SMALL
USER_CHARGES

mmff94s_NoEstat = 82.25
@<TRIPOS>ATOM
      1 C1          1.7409   12.3935   -1.5361 C.ar      1 <0>        -0.1300
      2 C2          2.2430   11.8090   -0.3734 C.ar      1 <0>        -0.1323
      3 C3          1.4857   11.6057   -2.6586 C.ar      1 <0>        -0.1309
      4 C4          2.4901   10.4368   -0.3331 C.ar      1 <0>        -0.1275
      5 C5          1.7328   10.2334   -2.6183 C.ar      1 <0>        -0.1272
      6 C6          2.2334    9.6580   -1.4559 C.ar      1 <0>        -0.0843
      7 C7          4.2075    6.3518   -1.8158 C.2       1 <0>         0.6709
      8 C8          5.2358    2.3798    1.5634 C.2       1 <0>         0.4867
      9 C9          4.0737    1.7586    0.8450 C.2       1 <0>         0.5883
     10 C10         6.5648    4.1956   -1.4701 C.2       1 <0>         0.6572
     11 C11         4.9178   -0.1813   -3.6183 C.3       1 <0>        -0.0802
     12 C12         4.3601    1.1806   -3.2131 C.3       1 <0>        -0.0765
     13 C13         5.2798   -1.0327   -2.4042 C.3       1 <0>        -0.0774
     14 C14         3.1836    1.0419   -2.2460 C.3       1 <0>        -0.0953
     15 C15         4.1009   -1.1664   -1.4392 C.3       1 <0>        -0.0906
     16 C16         6.7154    4.7360   -3.9137 C.3       1 <0>        -0.0871
     17 C17         4.1811    8.4057   -3.2842 C.3       1 <0>        -0.0716
     18 C18         7.2083    6.1802   -3.8482 C.3       1 <0>         0.1333
     19 C19         5.3192    7.7064   -4.0474 C.3       1 <0>         0.1246
     20 C20         5.8189    4.6139   -2.6998 C.3       1 <0>         0.0606
     21 C21         3.5216    0.1899   -1.0153 C.3       1 <0>         0.1012
     22 C22         3.9302    7.8611   -1.8583 C.3       1 <0>         0.1554
     23 C23         2.4991    8.1819   -1.4126 C.3       1 <0>        -0.0356
     24 C24         6.0158    5.3379    2.0114 C.3       1 <0>        -0.0795
     25 C25         6.7209    6.4716    2.7653 C.3       1 <0>        -0.1203
     26 C26         6.9719    4.2276    1.5544 C.3       1 <0>        -0.0920
     27 C27         5.7742    7.5909    3.1979 C.3       1 <0>         0.1502
     28 C28         6.2906    3.1130    0.7514 C.3       1 <0>         0.0224
     29 N1          5.3643    5.9735   -2.4795 N.am      1 <0>        -0.3553
     30 N2          6.1593    6.9309   -3.1367 N.3       1 <0>        -0.4320
     31 N3          4.8633    8.4685   -0.8981 N.3       1 <0>        -0.9031
     32 N4          6.5168    8.6391    3.8900 N.3       1 <0>        -0.9068
     33 N5          4.4695    0.8988   -0.1529 N.am      1 <0>        -0.5526
     34 N6          5.7762    3.5917   -0.5046 N.am      1 <0>        -0.5576
     35 O1          3.4676    5.5621   -1.2293 O.2       1 <0>        -0.6710
     36 O2          5.3022    2.1819    2.7699 O.2       1 <0>        -0.4901
     37 O3          2.9489    2.0822    1.1900 O.2       1 <0>        -0.5902
     38 O4          7.7705    4.4014   -1.3956 O.2       1 <0>        -0.5833
     39 H1          1.5486   13.4619   -1.5674 H         1 <0>         0.1320
     40 H2          2.4416   12.4225    0.5006 H         1 <0>         0.1324
     41 H3          1.0949   12.0609   -3.5639 H         1 <0>         0.1328
     42 H4          2.8813    9.9902    0.5771 H         1 <0>         0.1324
     43 H5          1.5311    9.6276   -3.4978 H         1 <0>         0.1434
     44 H6          4.1729   -0.7122   -4.2240 H         1 <0>         0.0405
     45 H7          5.8027   -0.0446   -4.2501 H         1 <0>         0.0421
     46 H8          5.1542    1.7772   -2.7482 H         1 <0>         0.0362
     47 H9          4.0371    1.7257   -4.1075 H         1 <0>         0.0439
     48 H10         5.5975   -2.0280   -2.7352 H         1 <0>         0.0350
     49 H11         6.1350   -0.5837   -1.8849 H         1 <0>         0.0428
     50 H12         2.8539    2.0404   -1.9345 H         1 <0>         0.0663
     51 H13         2.3414    0.5806   -2.7774 H         1 <0>         0.0466
     52 H14         3.3114   -1.7547   -1.9241 H         1 <0>         0.0493
     53 H15         4.4214   -1.7321   -0.5559 H         1 <0>         0.0520
     54 H16         6.1203    4.5986   -4.8250 H         1 <0>         0.0915
     55 H17         7.5395    4.0162   -3.9259 H         1 <0>         0.0601
     56 H18         4.3839    9.4843   -3.2353 H         1 <0>         0.0688
     57 H19         3.2652    8.3026   -3.8819 H         1 <0>         0.0630
     58 H20         8.1249    6.2239   -3.2478 H         1 <0>         0.0807
     59 H21         7.4504    6.5803   -4.8390 H         1 <0>         0.0380
     60 H22         4.8852    7.0622   -4.8247 H         1 <0>         0.0484
     61 H23         5.9181    8.4662   -4.5637 H         1 <0>         0.0697
     62 H24         4.9753    3.9333   -2.8455 H         1 <0>         0.0843
     63 H25         2.6216    0.0369   -0.4106 H         1 <0>         0.0831
     64 H26         2.3479    7.7977   -0.4022 H         1 <0>         0.0704
     65 H27         1.7988    7.6502   -2.0594 H         1 <0>         0.0718
     66 H28         5.2579    4.9142    2.6804 H         1 <0>         0.0606
     67 H29         5.4809    5.7546    1.1500 H         1 <0>         0.0458
     68 H30         7.2000    6.0392    3.6534 H         1 <0>         0.0375
     69 H31         7.5258    6.8807    2.1417 H         1 <0>         0.0392
     70 H32         7.4599    3.7926    2.4354 H         1 <0>         0.0606
     71 H33         7.7645    4.6634    0.9347 H         1 <0>         0.0579
     72 H34         4.9986    7.1962    3.8630 H         1 <0>         0.0571
     73 H35         5.2784    8.0349    2.3297 H         1 <0>         0.0503
     74 H36         7.0421    2.3587    0.4881 H         1 <0>         0.0993
     75 H37         5.7856    8.6648   -1.2112 H         1 <0>         0.3700
     76 H38         4.6041    8.4681    0.0612 H         1 <0>         0.3660
     77 H39         5.9996    9.3711    4.3277 H         1 <0>         0.3465
     78 H40         7.4997    8.7018    3.7315 H         1 <0>         0.3446
     79 H41         5.4635    0.7487   -0.2981 H         1 <0>         0.3148
     80 H42         4.7816    3.4809   -0.6931 H         1 <0>         0.3220
@<TRIPOS>BOND
     1    1    2 ar
     2    1    3 ar
     3    2    4 ar
     4    3    5 ar
     5    4    6 ar
     6    5    6 ar
     7    6   23 1
     8    7   22 1
     9    7   29 am
    10    7   35 2
    11    8    9 1
    12    8   28 1
    13    8   36 2
    14    9   33 am
    15    9   37 2
    16   10   20 1
    17   10   34 am
    18   10   38 2
    19   11   12 1
    20   11   13 1
    21   12   14 1
    22   13   15 1
    23   14   21 1
    24   15   21 1
    25   16   18 1
    26   16   20 1
    27   17   19 1
    28   17   22 1
    29   18   30 1
    30   19   30 1
    31   20   29 1
    32   21   33 1
    33   22   23 1
    34   22   31 1
    35   24   25 1
    36   24   26 1
    37   25   27 1
    38   26   28 1
    39   27   32 1
    40   28   34 1
    41   29   30 1
    42    1   39 1
    43    2   40 1
    44    3   41 1
    45    4   42 1
    46    5   43 1
    47   11   44 1
    48   11   45 1
    49   12   46 1
    50   12   47 1
    51   13   48 1
    52   13   49 1
    53   14   50 1
    54   14   51 1
    55   15   52 1
    56   15   53 1
    57   16   54 1
    58   16   55 1
    59   17   56 1
    60   17   57 1
    61   18   58 1
    62   18   59 1
    63   19   60 1
    64   19   61 1
    65   20   62 1
    66   21   63 1
    67   23   64 1
    68   23   65 1
    69   24   66 1
    70   24   67 1
    71   25   68 1
    72   25   69 1
    73   26   70 1
    74   26   71 1
    75   27   72 1
    76   27   73 1
    77   28   74 1
    78   31   75 1
    79   31   76 1
    80   32   77 1
    81   32   78 1
    82   33   79 1
    83   34   80 1
@<TRIPOS>MOLECULE
1a46_ligand_57
   80    83     0     0     0
SMALL
USER_CHARGES

mmff94s_NoEstat = 82.27
@<TRIPOS>ATOM
      1 C1         -3.8356    2.2713   -3.8796 C.ar      1 <0>        -0.1300
      2 C2         -3.3096    1.7701   -2.6889 C.ar      1 <0>        -0.1323
      3 C3         -2.9803    2.7299   -4.8815 C.ar      1 <0>        -0.1309
      4 C4         -1.9283    1.7276   -2.5000 C.ar      1 <0>        -0.1275
      5 C5         -1.5989    2.6874   -4.6926 C.ar      1 <0>        -0.1272
      6 C6         -1.0819    2.1865   -3.5031 C.ar      1 <0>        -0.0843
      7 C7          2.4376    3.3924   -2.4466 C.2       1 <0>         0.6709
      8 C8          5.2358    2.3798    1.5634 C.2       1 <0>         0.4867
      9 C9          4.0737    1.7586    0.8450 C.2       1 <0>         0.5883
     10 C10         4.7954    4.5647   -0.6048 C.2       1 <0>         0.6572
     11 C11         4.0644   -3.1378    0.1954 C.3       1 <0>        -0.0802
     12 C12         4.9349   -2.3079   -0.7445 C.3       1 <0>        -0.0765
     13 C13         3.3449   -2.2675    1.2224 C.3       1 <0>        -0.0774
     14 C14         4.1346   -1.1879   -1.4107 C.3       1 <0>        -0.0953
     15 C15         2.5480   -1.1477    0.5515 C.3       1 <0>        -0.0906
     16 C16         4.5014    6.3954   -2.2922 C.3       1 <0>        -0.0871
     17 C17         0.5366    4.6532   -3.5292 C.3       1 <0>        -0.0716
     18 C18         3.1192    6.9141   -1.9004 C.3       1 <0>         0.1333
     19 C19         1.4223    5.8937   -3.3205 C.3       1 <0>         0.1246
     20 C20         4.4137    4.9104   -2.0113 C.3       1 <0>         0.0606
     21 C21         3.4011   -0.2972   -0.3991 C.3       1 <0>         0.1012
     22 C22         0.9174    3.4339   -2.6568 C.3       1 <0>         0.1554
     23 C23         0.4040    2.1409   -3.2999 C.3       1 <0>        -0.0356
     24 C24         8.0800    4.9598    0.7851 C.3       1 <0>        -0.0795
     25 C25         8.7880    6.0338    1.6192 C.3       1 <0>        -0.1203
     26 C26         6.9719    4.2276    1.5544 C.3       1 <0>        -0.0920
     27 C27         9.9095    6.7454    0.8629 C.3       1 <0>         0.1502
     28 C28         6.2906    3.1130    0.7514 C.3       1 <0>         0.0224
     29 N1          2.9983    4.6251   -2.1500 N.am      1 <0>        -0.3553
     30 N2          2.1971    5.7804   -2.0863 N.3       1 <0>        -0.4320
     31 N3          0.3290    3.5510   -1.3145 N.3       1 <0>        -0.9031
     32 N4         10.5470    7.7366    1.7233 N.3       1 <0>        -0.9068
     33 N5          4.3625    0.5037    0.3619 N.am      1 <0>        -0.5526
     34 N6          5.7762    3.5917   -0.5046 N.am      1 <0>        -0.5576
     35 O1          3.0852    2.3485   -2.5237 O.2       1 <0>        -0.6710
     36 O2          5.3022    2.1819    2.7699 O.2       1 <0>        -0.4901
     37 O3          3.0463    2.4099    0.7491 O.2       1 <0>        -0.5902
     38 O4          4.2448    5.1367    0.3286 O.2       1 <0>        -0.5833
     39 H1         -4.9112    2.3044   -4.0267 H         1 <0>         0.1320
     40 H2         -3.9757    1.4131   -1.9089 H         1 <0>         0.1324
     41 H3         -3.3900    3.1202   -5.8085 H         1 <0>         0.1328
     42 H4         -1.5275    1.3355   -1.5691 H         1 <0>         0.1324
     43 H5         -0.9402    3.0469   -5.4787 H         1 <0>         0.1434
     44 H6          3.3227   -3.6924   -0.3927 H         1 <0>         0.0405
     45 H7          4.6827   -3.8816    0.7106 H         1 <0>         0.0421
     46 H8          5.7747   -1.8806   -0.1833 H         1 <0>         0.0362
     47 H9          5.3667   -2.9577   -1.5143 H         1 <0>         0.0439
     48 H10         2.6703   -2.8890    1.8223 H         1 <0>         0.0350
     49 H11         4.0784   -1.8371    1.9148 H         1 <0>         0.0428
     50 H12         4.8088   -0.5817   -2.0279 H         1 <0>         0.0663
     51 H13         3.3981   -1.6353   -2.0902 H         1 <0>         0.0466
     52 H14         1.7203   -1.5929   -0.0152 H         1 <0>         0.0493
     53 H15         2.0985   -0.5129    1.3247 H         1 <0>         0.0520
     54 H16         4.6567    6.5575   -3.3661 H         1 <0>         0.0915
     55 H17         5.3043    6.8996   -1.7458 H         1 <0>         0.0601
     56 H18        -0.5135    4.9205   -3.3490 H         1 <0>         0.0688
     57 H19         0.5944    4.3761   -4.5907 H         1 <0>         0.0630
     58 H20         3.1200    7.1814   -0.8369 H         1 <0>         0.0807
     59 H21         2.8405    7.8136   -2.4605 H         1 <0>         0.0380
     60 H22         2.0843    6.0105   -4.1897 H         1 <0>         0.0484
     61 H23         0.7825    6.7837   -3.2878 H         1 <0>         0.0697
     62 H24         5.0094    4.2996   -2.6955 H         1 <0>         0.0843
     63 H25         2.7649    0.4200   -0.9282 H         1 <0>         0.0831
     64 H26         0.6750    1.2965   -2.6636 H         1 <0>         0.0704
     65 H27         0.9139    1.9924   -4.2536 H         1 <0>         0.0718
     66 H28         7.6494    5.4516   -0.0948 H         1 <0>         0.0606
     67 H29         8.8216    4.2418    0.4157 H         1 <0>         0.0458
     68 H30         8.0356    6.7709    1.9287 H         1 <0>         0.0375
     69 H31         9.1825    5.5824    2.5383 H         1 <0>         0.0392
     70 H32         6.2171    4.9575    1.8728 H         1 <0>         0.0606
     71 H33         7.3929    3.7874    2.4660 H         1 <0>         0.0579
     72 H34         9.5108    7.2416   -0.0285 H         1 <0>         0.0571
     73 H35        10.6706    6.0303    0.5375 H         1 <0>         0.0503
     74 H36         7.0421    2.3587    0.4881 H         1 <0>         0.0993
     75 H37         0.2633    4.4591   -0.9165 H         1 <0>         0.3700
     76 H38         0.2131    2.7172   -0.7867 H         1 <0>         0.3660
     77 H39        11.2163    8.3531    1.3147 H         1 <0>         0.3465
     78 H40        10.4498    7.6340    2.7108 H         1 <0>         0.3446
     79 H41         5.2837    0.1150    0.5408 H         1 <0>         0.3148
     80 H42         6.1527    3.1949   -1.3636 H         1 <0>         0.3220
@<TRIPOS>BOND
     1    1    2 ar
     2    1    3 ar
     3    2    4 ar
     4    3    5 ar
     5    4    6 ar
     6    5    6 ar
     7    6   23 1
     8    7   22 1
     9    7   29 am
    10    7   35 2
    11    8    9 1
    12    8   28 1
    13    8   36 2
    14    9   33 am
    15    9   37 2
    16   10   20 1
    17   10   34 am
    18   10   38 2
    19   11   12 1
    20   11   13 1
    21   12   14 1
    22   13   15 1
    23   14   21 1
    24   15   21 1
    25   16   18 1
    26   16   20 1
    27   17   19 1
    28   17   22 1
    29   18   30 1
    30   19   30 1
    31   20   29 1
    32   21   33 1
    33   22   23 1
    34   22   31 1
    35   24   25 1
    36   24   26 1
    37   25   27 1
    38   26   28 1
    39   27   32 1
    40   28   34 1
    41   29   30 1
    42    1   39 1
    43    2   40 1
    44    3   41 1
    45    4   42 1
    46    5   43 1
    47   11   44 1
    48   11   45 1
    49   12   46 1
    50   12   47 1
    51   13   48 1
    52   13   49 1
    53   14   50 1
    54   14   51 1
    55   15   52 1
    56   15   53 1
    57   16   54 1
    58   16   55 1
    59   17   56 1
    60   17   57 1
    61   18   58 1
    62   18   59 1
    63   19   60 1
    64   19   61 1
    65   20   62 1
    66   21   63 1
    67   23   64 1
    68   23   65 1
    69   24   66 1
    70   24   67 1
    71   25   68 1
    72   25   69 1
    73   26   70 1
    74   26   71 1
    75   27   72 1
    76   27   73 1
    77   28   74 1
    78   31   75 1
    79   31   76 1
    80   32   77 1
    81   32   78 1
    82   33   79 1
    83   34   80 1
@<TRIPOS>MOLECULE
1a46_ligand_58
   80    83     0     0     0
SMALL
USER_CHARGES

mmff94s_NoEstat = 82.29
@<TRIPOS>ATOM
      1 C1          9.3427    1.2226  -10.2936 C.ar      1 <0>        -0.1300
      2 C2          9.9666    0.8172   -9.1138 C.ar      1 <0>        -0.1323
      3 C3          8.4336    2.2805  -10.2739 C.ar      1 <0>        -0.1309
      4 C4          9.6814    1.4695   -7.9143 C.ar      1 <0>        -0.1275
      5 C5          8.1485    2.9328   -9.0744 C.ar      1 <0>        -0.1272
      6 C6          8.7742    2.5231   -7.9024 C.ar      1 <0>        -0.0843
      7 C7          6.9710    3.2795   -4.5657 C.2       1 <0>         0.6709
      8 C8          5.2358    2.3798    1.5634 C.2       1 <0>         0.4867
      9 C9          5.6522    1.1980    2.3894 C.2       1 <0>         0.5883
     10 C10         5.7098    2.8119   -1.6475 C.2       1 <0>         0.6572
     11 C11         5.8911   -3.1928    0.1399 C.3       1 <0>        -0.0802
     12 C12         4.7903   -2.5697    0.9943 C.3       1 <0>        -0.0765
     13 C13         7.0788   -2.2502   -0.0351 C.3       1 <0>        -0.0774
     14 C14         5.3303   -2.0814    2.3392 C.3       1 <0>        -0.0953
     15 C15         7.6136   -1.7629    1.3123 C.3       1 <0>        -0.0906
     16 C16         3.6624    3.2324   -3.0320 C.3       1 <0>        -0.0871
     17 C17         6.0388    2.5547   -6.7975 C.3       1 <0>        -0.0716
     18 C18         3.6514    1.9752   -3.8994 C.3       1 <0>         0.1333
     19 C19         4.6996    2.4463   -6.0480 C.3       1 <0>         0.1246
     20 C20         5.1372    3.5153   -2.8394 C.3       1 <0>         0.0606
     21 C21         6.5260   -1.1310    2.1912 C.3       1 <0>         0.1012
     22 C22         7.2891    2.5653   -5.8869 C.3       1 <0>         0.1554
     23 C23         8.4675    3.2247   -6.6121 C.3       1 <0>        -0.0356
     24 C24         8.0800    4.9598    0.7851 C.3       1 <0>        -0.0795
     25 C25         8.7880    6.0338    1.6192 C.3       1 <0>        -0.1203
     26 C26         6.9719    4.2276    1.5544 C.3       1 <0>        -0.0920
     27 C27         9.9095    6.7454    0.8629 C.3       1 <0>         0.1502
     28 C28         6.2906    3.1130    0.7514 C.3       1 <0>         0.0224
     29 N1          5.7488    2.9259   -4.0152 N.am      1 <0>        -0.3553
     30 N2          4.9069    2.0073   -4.6693 N.3       1 <0>        -0.4320
     31 N3          7.6768    1.1953   -5.5201 N.3       1 <0>        -0.9031
     32 N4         10.5470    7.7366    1.7233 N.3       1 <0>        -0.9068
     33 N5          6.0911    0.1457    1.6201 N.am      1 <0>        -0.5526
     34 N6          5.7762    3.5917   -0.5046 N.am      1 <0>        -0.5576
     35 O1          7.7474    4.0812   -4.0464 O.2       1 <0>        -0.6710
     36 O2          4.0675    2.7325    1.6631 O.2       1 <0>        -0.4901
     37 O3          5.5431    1.2807    3.6019 O.2       1 <0>        -0.5902
     38 O4          6.0670    1.6440   -1.7490 O.2       1 <0>        -0.5833
     39 H1          9.5646    0.7147  -11.2275 H         1 <0>         0.1320
     40 H2         10.6743   -0.0064   -9.1292 H         1 <0>         0.1324
     41 H3          7.9478    2.5960  -11.1926 H         1 <0>         0.1328
     42 H4         10.1723    1.1467   -7.0000 H         1 <0>         0.1324
     43 H5          7.4388    3.7559   -9.0687 H         1 <0>         0.1434
     44 H6          6.2329   -4.1227    0.6110 H         1 <0>         0.0405
     45 H7          5.4871   -3.4636   -0.8422 H         1 <0>         0.0421
     46 H8          4.3356   -1.7325    0.4511 H         1 <0>         0.0362
     47 H9          3.9961   -3.3058    1.1637 H         1 <0>         0.0439
     48 H10         7.8774   -2.7635   -0.5827 H         1 <0>         0.0350
     49 H11         6.7768   -1.3914   -0.6467 H         1 <0>         0.0428
     50 H12         4.5228   -1.5882    2.8938 H         1 <0>         0.0663
     51 H13         5.6388   -2.9510    2.9333 H         1 <0>         0.0466
     52 H14         8.0534   -2.6142    1.8474 H         1 <0>         0.0493
     53 H15         8.4235   -1.0439    1.1392 H         1 <0>         0.0520
     54 H16         3.1996    4.0578   -3.5869 H         1 <0>         0.0915
     55 H17         3.1150    3.0948   -2.0945 H         1 <0>         0.0601
     56 H18         6.1186    1.7328   -7.5220 H         1 <0>         0.0688
     57 H19         6.0134    3.4760   -7.3953 H         1 <0>         0.0630
     58 H20         3.6705    1.0888   -3.2538 H         1 <0>         0.0807
     59 H21         2.7495    1.9066   -4.5175 H         1 <0>         0.0380
     60 H22         4.1937    3.4213   -6.0771 H         1 <0>         0.0484
     61 H23         4.0529    1.7380   -6.5798 H         1 <0>         0.0697
     62 H24         5.3721    4.5807   -2.7630 H         1 <0>         0.0843
     63 H25         6.9368   -0.8941    3.1782 H         1 <0>         0.0831
     64 H26         9.3395    3.2124   -5.9558 H         1 <0>         0.0704
     65 H27         8.2279    4.2735   -6.7972 H         1 <0>         0.0718
     66 H28         7.6494    5.4516   -0.0948 H         1 <0>         0.0606
     67 H29         8.8216    4.2418    0.4157 H         1 <0>         0.0458
     68 H30         8.0356    6.7709    1.9287 H         1 <0>         0.0375
     69 H31         9.1825    5.5824    2.5383 H         1 <0>         0.0392
     70 H32         6.2171    4.9575    1.8728 H         1 <0>         0.0606
     71 H33         7.3929    3.7874    2.4660 H         1 <0>         0.0579
     72 H34         9.5108    7.2416   -0.0285 H         1 <0>         0.0571
     73 H35        10.6706    6.0303    0.5375 H         1 <0>         0.0503
     74 H36         7.0421    2.3587    0.4881 H         1 <0>         0.0993
     75 H37         6.9507    0.5323   -5.3773 H         1 <0>         0.3700
     76 H38         8.6161    1.0420   -5.2343 H         1 <0>         0.3660
     77 H39        11.2163    8.3531    1.3147 H         1 <0>         0.3465
     78 H40        10.4498    7.6340    2.7108 H         1 <0>         0.3446
     79 H41         6.1146    0.2589    0.6111 H         1 <0>         0.3148
     80 H42         5.4441    4.5531   -0.5557 H         1 <0>         0.3220
@<TRIPOS>BOND
     1    1    2 ar
     2    1    3 ar
     3    2    4 ar
     4    3    5 ar
     5    4    6 ar
     6    5    6 ar
     7    6   23 1
     8    7   22 1
     9    7   29 am
    10    7   35 2
    11    8    9 1
    12    8   28 1
    13    8   36 2
    14    9   33 am
    15    9   37 2
    16   10   20 1
    17   10   34 am
    18   10   38 2
    19   11   12 1
    20   11   13 1
    21   12   14 1
    22   13   15 1
    23   14   21 1
    24   15   21 1
    25   16   18 1
    26   16   20 1
    27   17   19 1
    28   17   22 1
    29   18   30 1
    30   19   30 1
    31   20   29 1
    32   21   33 1
    33   22   23 1
    34   22   31 1
    35   24   25 1
    36   24   26 1
    37   25   27 1
    38   26   28 1
    39   27   32 1
    40   28   34 1
    41   29   30 1
    42    1   39 1
    43    2   40 1
    44    3   41 1
    45    4   42 1
    46    5   43 1
    47   11   44 1
    48   11   45 1
    49   12   46 1
    50   12   47 1
    51   13   48 1
    52   13   49 1
    53   14   50 1
    54   14   51 1
    55   15   52 1
    56   15   53 1
    57   16   54 1
    58   16   55 1
    59   17   56 1
    60   17   57 1
    61   18   58 1
    62   18   59 1
    63   19   60 1
    64   19   61 1
    65   20   62 1
    66   21   63 1
    67   23   64 1
    68   23   65 1
    69   24   66 1
    70   24   67 1
    71   25   68 1
    72   25   69 1
    73   26   70 1
    74   26   71 1
    75   27   72 1
    76   27   73 1
    77   28   74 1
    78   31   75 1
    79   31   76 1
    80   32   77 1
    81   32   78 1
    82   33   79 1
    83   34   80 1
@<TRIPOS>MOLECULE
1a46_ligand_59
   80    83     0     0     0
SMALL
USER_CHARGES

mmff94s_NoEstat = 82.29
@<TRIPOS>ATOM
      1 C1         -5.9518    1.0529  -15.7574 C.ar      1 <0>        -0.1300
      2 C2         -4.7078    1.6646  -15.9115 C.ar      1 <0>        -0.1323
      3 C3         -6.6077    1.1063  -14.5275 C.ar      1 <0>        -0.1309
      4 C4         -4.1196    2.3297  -14.8357 C.ar      1 <0>        -0.1275
      5 C5         -6.0195    1.7714  -13.4517 C.ar      1 <0>        -0.1272
      6 C6         -4.7793    2.3787  -13.6128 C.ar      1 <0>        -0.0843
      7 C7         -2.6173    2.8751  -10.4447 C.2       1 <0>         0.6709
      8 C8          2.7796    3.2097   -6.1637 C.2       1 <0>         0.4867
      9 C9          2.0233    2.5606   -5.0416 C.2       1 <0>         0.5883
     10 C10        -0.0591    2.8141   -8.5012 C.2       1 <0>         0.6572
     11 C11         1.9645   -1.8404   -1.9043 C.3       1 <0>        -0.0802
     12 C12         1.2252   -1.9940   -3.2304 C.3       1 <0>        -0.0765
     13 C13         1.9764   -0.3897   -1.4308 C.3       1 <0>        -0.0774
     14 C14         1.7870   -1.0593   -4.3004 C.3       1 <0>        -0.0953
     15 C15         2.5397    0.5467   -2.4984 C.3       1 <0>        -0.0906
     16 C16        -1.5879    1.1654   -7.3921 C.3       1 <0>        -0.0871
     17 C17        -4.1019    0.9486  -11.1228 C.3       1 <0>        -0.0716
     18 C18        -1.5823    0.0424   -8.4274 C.3       1 <0>         0.1333
     19 C19        -3.5290    0.2485   -9.8784 C.3       1 <0>         0.1246
     20 C20        -1.4789    2.4202   -8.2321 C.3       1 <0>         0.0606
     21 C21         1.7865    0.3978   -3.8249 C.3       1 <0>         0.1012
     22 C22        -3.2673    2.1480  -11.6303 C.3       1 <0>         0.1554
     23 C23        -4.1466    3.0941  -12.4556 C.3       1 <0>        -0.0356
     24 C24         1.5857    6.0302   -6.5865 C.3       1 <0>        -0.0795
     25 C25         1.6811    7.5259   -6.9095 C.3       1 <0>        -0.1203
     26 C26         2.1570    5.1335   -7.6933 C.3       1 <0>        -0.0920
     27 C27         1.0885    8.4192   -5.8200 C.3       1 <0>         0.1502
     28 C28         2.0196    3.6328   -7.4097 C.3       1 <0>         0.0224
     29 N1         -2.0587    2.0261   -9.5019 N.am      1 <0>        -0.3553
     30 N2         -2.1349    0.6298   -9.6602 N.3       1 <0>        -0.4320
     31 N3         -2.1572    1.6877  -12.4773 N.3       1 <0>        -0.9031
     32 N4          1.1980    9.8225   -6.2046 N.3       1 <0>        -0.9068
     33 N5          2.3972    1.2522   -4.8415 N.am      1 <0>        -0.5526
     34 N6          0.6426    3.2153   -7.3763 N.am      1 <0>        -0.5576
     35 O1         -2.5899    4.1027  -10.3594 O.2       1 <0>        -0.6710
     36 O2          3.9949    3.2835   -6.0334 O.2       1 <0>        -0.4901
     37 O3          1.1778    3.2234   -4.4630 O.2       1 <0>        -0.5902
     38 O4          0.3766    2.7593   -9.6452 O.2       1 <0>        -0.5833
     39 H1         -6.4098    0.5350  -16.5951 H         1 <0>         0.1320
     40 H2         -4.1972    1.6230  -16.8692 H         1 <0>         0.1324
     41 H3         -7.5763    0.6298  -14.4076 H         1 <0>         0.1328
     42 H4         -3.1501    2.8034  -14.9651 H         1 <0>         0.1324
     43 H5         -6.5379    1.8077  -12.4972 H         1 <0>         0.1434
     44 H6          1.4927   -2.4726   -1.1437 H         1 <0>         0.0405
     45 H7          2.9964   -2.1943   -2.0196 H         1 <0>         0.0421
     46 H8          1.2964   -3.0321   -3.5740 H         1 <0>         0.0362
     47 H9          0.1599   -1.7786   -3.0820 H         1 <0>         0.0439
     48 H10         0.9554   -0.0796   -1.1762 H         1 <0>         0.0350
     49 H11         2.5731   -0.3059   -0.5155 H         1 <0>         0.0428
     50 H12         2.8086   -1.3703   -4.5560 H         1 <0>         0.0663
     51 H13         1.1952   -1.1537   -5.2190 H         1 <0>         0.0466
     52 H14         2.4782    1.5839   -2.1473 H         1 <0>         0.0493
     53 H15         3.6062    0.3314   -2.6462 H         1 <0>         0.0520
     54 H16        -2.5475    1.1615   -6.8606 H         1 <0>         0.0915
     55 H17        -0.7842    1.0569   -6.6575 H         1 <0>         0.0601
     56 H18        -4.2204    0.2148  -11.9317 H         1 <0>         0.0688
     57 H19        -5.1178    1.2870  -10.8778 H         1 <0>         0.0630
     58 H20        -0.5477   -0.2605   -8.6286 H         1 <0>         0.0807
     59 H21        -2.1179   -0.8467   -8.0766 H         1 <0>         0.0380
     60 H22        -4.1468    0.5063   -9.0071 H         1 <0>         0.0484
     61 H23        -3.6100   -0.8367  -10.0142 H         1 <0>         0.0697
     62 H24        -2.0054    3.2790   -7.8063 H         1 <0>         0.0843
     63 H25         0.7550    0.7494   -3.7073 H         1 <0>         0.0831
     64 H26        -3.5359    3.9262  -12.8108 H         1 <0>         0.0704
     65 H27        -4.9137    3.5213  -11.8072 H         1 <0>         0.0718
     66 H28         2.1358    5.8550   -5.6547 H         1 <0>         0.0606
     67 H29         0.5392    5.7688   -6.3906 H         1 <0>         0.0458
     68 H30         2.7419    7.7748   -7.0444 H         1 <0>         0.0375
     69 H31         1.1870    7.7255   -7.8687 H         1 <0>         0.0392
     70 H32         3.2164    5.3787   -7.8393 H         1 <0>         0.0606
     71 H33         1.6466    5.3535   -8.6384 H         1 <0>         0.0579
     72 H34         1.6137    8.2608   -4.8719 H         1 <0>         0.0571
     73 H35         0.0315    8.1861   -5.6617 H         1 <0>         0.0503
     74 H36         2.4714    3.0747   -8.2388 H         1 <0>         0.0993
     75 H37        -1.7180    0.8294  -12.2371 H         1 <0>         0.3700
     76 H38        -1.7642    2.3382  -13.1175 H         1 <0>         0.3660
     77 H39         0.9557   10.5154   -5.5293 H         1 <0>         0.3465
     78 H40         1.3102   10.0373   -7.1723 H         1 <0>         0.3446
     79 H41         3.1304    0.8623   -5.4263 H         1 <0>         0.3148
     80 H42         0.1596    3.2148   -6.4798 H         1 <0>         0.3220
@<TRIPOS>BOND
     1    1    2 ar
     2    1    3 ar
     3    2    4 ar
     4    3    5 ar
     5    4    6 ar
     6    5    6 ar
     7    6   23 1
     8    7   22 1
     9    7   29 am
    10    7   35 2
    11    8    9 1
    12    8   28 1
    13    8   36 2
    14    9   33 am
    15    9   37 2
    16   10   20 1
    17   10   34 am
    18   10   38 2
    19   11   12 1
    20   11   13 1
    21   12   14 1
    22   13   15 1
    23   14   21 1
    24   15   21 1
    25   16   18 1
    26   16   20 1
    27   17   19 1
    28   17   22 1
    29   18   30 1
    30   19   30 1
    31   20   29 1
    32   21   33 1
    33   22   23 1
    34   22   31 1
    35   24   25 1
    36   24   26 1
    37   25   27 1
    38   26   28 1
    39   27   32 1
    40   28   34 1
    41   29   30 1
    42    1   39 1
    43    2   40 1
    44    3   41 1
    45    4   42 1
    46    5   43 1
    47   11   44 1
    48   11   45 1
    49   12   46 1
    50   12   47 1
    51   13   48 1
    52   13   49 1
    53   14   50 1
    54   14   51 1
    55   15   52 1
    56   15   53 1
    57   16   54 1
    58   16   55 1
    59   17   56 1
    60   17   57 1
    61   18   58 1
    62   18   59 1
    63   19   60 1
    64   19   61 1
    65   20   62 1
    66   21   63 1
    67   23   64 1
    68   23   65 1
    69   24   66 1
    70   24   67 1
    71   25   68 1
    72   25   69 1
    73   26   70 1
    74   26   71 1
    75   27   72 1
    76   27   73 1
    77   28   74 1
    78   31   75 1
    79   31   76 1
    80   32   77 1
    81   32   78 1
    82   33   79 1
    83   34   80 1
@<TRIPOS>MOLECULE
1a46_ligand_60
   80    83     0     0     0
SMALL
USER_CHARGES

mmff94s_NoEstat = 82.30
@<TRIPOS>ATOM
      1 C1         -7.1814    8.1831  -11.8066 C.ar      1 <0>        -0.1300
      2 C2         -5.8511    8.6018  -11.7877 C.ar      1 <0>        -0.1323
      3 C3         -7.6137    7.1932  -10.9240 C.ar      1 <0>        -0.1309
      4 C4         -4.9529    8.0306  -10.8863 C.ar      1 <0>        -0.1275
      5 C5         -6.7155    6.6220  -10.0225 C.ar      1 <0>        -0.1272
      6 C6         -5.3910    7.0444  -10.0096 C.ar      1 <0>        -0.0843
      7 C7         -2.7477    4.5672   -8.6551 C.2       1 <0>         0.6709
      8 C8          2.7796    3.2097   -6.1637 C.2       1 <0>         0.4867
      9 C9          2.2829    2.0299   -5.3801 C.2       1 <0>         0.5883
     10 C10        -0.0591    2.8141   -8.5012 C.2       1 <0>         0.6572
     11 C11        -0.3325   -2.5603   -5.6484 C.3       1 <0>        -0.0802
     12 C12         1.0591   -2.7471   -6.2461 C.3       1 <0>        -0.0765
     13 C13        -0.3360   -1.5014   -4.5494 C.3       1 <0>        -0.0774
     14 C14         1.6421   -1.4243   -6.7402 C.3       1 <0>        -0.0953
     15 C15         0.2458   -0.1771   -5.0410 C.3       1 <0>        -0.0906
     16 C16        -1.8142    1.0434   -8.7649 C.3       1 <0>        -0.0871
     17 C17        -4.7936    4.1559  -10.0766 C.3       1 <0>        -0.0716
     18 C18        -2.2713    1.3172  -10.1964 C.3       1 <0>         0.1333
     19 C19        -4.2684    2.7130  -10.1718 C.3       1 <0>         0.1246
     20 C20        -1.4789    2.4202   -8.2321 C.3       1 <0>         0.0606
     21 C21         1.6479   -0.3676   -5.6301 C.3       1 <0>         0.1012
     22 C22        -3.7376    5.2000   -9.6434 C.3       1 <0>         0.1554
     23 C23        -4.4248    6.4299   -9.0399 C.3       1 <0>        -0.0356
     24 C24         1.5857    6.0302   -6.5865 C.3       1 <0>        -0.0795
     25 C25         1.6811    7.5259   -6.9095 C.3       1 <0>        -0.1203
     26 C26         2.1570    5.1335   -7.6933 C.3       1 <0>        -0.0920
     27 C27         1.0885    8.4192   -5.8200 C.3       1 <0>         0.1502
     28 C28         2.0196    3.6328   -7.4097 C.3       1 <0>         0.0224
     29 N1         -2.3208    3.2998   -9.0203 N.am      1 <0>        -0.3553
     30 N2         -2.8071    2.6894  -10.1914 N.3       1 <0>        -0.4320
     31 N3         -2.9336    5.6348  -10.7950 N.3       1 <0>        -0.9031
     32 N4          1.1980    9.8225   -6.2046 N.3       1 <0>        -0.9068
     33 N5          2.1424    0.9032   -6.1564 N.am      1 <0>        -0.5526
     34 N6          0.6426    3.2153   -7.3763 N.am      1 <0>        -0.5576
     35 O1         -2.3654    5.1506   -7.6410 O.2       1 <0>        -0.6710
     36 O2          3.8302    3.7133   -5.7870 O.2       1 <0>        -0.4901
     37 O3          2.0451    2.1901   -4.1942 O.2       1 <0>        -0.5902
     38 O4          0.3766    2.7593   -9.6452 O.2       1 <0>        -0.5833
     39 H1         -7.8808    8.6278  -12.5086 H         1 <0>         0.1320
     40 H2         -5.5146    9.3725  -12.4750 H         1 <0>         0.1324
     41 H3         -8.6496    6.8672  -10.9389 H         1 <0>         0.1328
     42 H4         -3.9182    8.3631  -10.8788 H         1 <0>         0.1324
     43 H5         -7.0613    5.8514   -9.3387 H         1 <0>         0.1434
     44 H6         -1.0325   -2.2657   -6.4402 H         1 <0>         0.0405
     45 H7         -0.6908   -3.5134   -5.2432 H         1 <0>         0.0421
     46 H8          1.7262   -3.1796   -5.4901 H         1 <0>         0.0362
     47 H9          1.0109   -3.4610   -7.0760 H         1 <0>         0.0439
     48 H10        -1.3599   -1.3440   -4.1921 H         1 <0>         0.0350
     49 H11         0.2494   -1.8612   -3.6942 H         1 <0>         0.0428
     50 H12         2.6621   -1.5869   -7.1089 H         1 <0>         0.0663
     51 H13         1.0566   -1.0650   -7.5967 H         1 <0>         0.0466
     52 H14        -0.4224    0.2566   -5.7965 H         1 <0>         0.0493
     53 H15         0.2820    0.5388   -4.2109 H         1 <0>         0.0520
     54 H16        -2.6505    0.6220   -8.1933 H         1 <0>         0.0915
     55 H17        -0.9769    0.3401   -8.7238 H         1 <0>         0.0601
     56 H18        -5.2271    4.4505  -11.0420 H         1 <0>         0.0688
     57 H19        -5.6282    4.1614   -9.3624 H         1 <0>         0.0630
     58 H20        -1.4027    1.2932  -10.8654 H         1 <0>         0.0807
     59 H21        -2.9789    0.5622  -10.5565 H         1 <0>         0.0380
     60 H22        -4.6584    2.1340   -9.3232 H         1 <0>         0.0484
     61 H23        -4.6688    2.2501  -11.0817 H         1 <0>         0.0697
     62 H24        -1.6773    2.5360   -7.1628 H         1 <0>         0.0843
     63 H25         2.3456   -0.6647   -4.8387 H         1 <0>         0.0831
     64 H26        -3.6625    7.1558   -8.7509 H         1 <0>         0.0704
     65 H27        -4.9408    6.1344   -8.1245 H         1 <0>         0.0718
     66 H28         2.1358    5.8550   -5.6547 H         1 <0>         0.0606
     67 H29         0.5392    5.7688   -6.3906 H         1 <0>         0.0458
     68 H30         2.7419    7.7748   -7.0444 H         1 <0>         0.0375
     69 H31         1.1870    7.7255   -7.8687 H         1 <0>         0.0392
     70 H32         3.2164    5.3787   -7.8393 H         1 <0>         0.0606
     71 H33         1.6466    5.3535   -8.6384 H         1 <0>         0.0579
     72 H34         1.6137    8.2608   -4.8719 H         1 <0>         0.0571
     73 H35         0.0315    8.1861   -5.6617 H         1 <0>         0.0503
     74 H36         2.4714    3.0747   -8.2388 H         1 <0>         0.0993
     75 H37        -2.7229    4.9595  -11.4927 H         1 <0>         0.3700
     76 H38        -2.4695    6.5111  -10.7297 H         1 <0>         0.3660
     77 H39         0.9557   10.5154   -5.5293 H         1 <0>         0.3465
     78 H40         1.3102   10.0373   -7.1723 H         1 <0>         0.3446
     79 H41         2.3934    0.9566   -7.1391 H         1 <0>         0.3148
     80 H42         0.1596    3.2148   -6.4798 H         1 <0>         0.3220
@<TRIPOS>BOND
     1    1    2 ar
     2    1    3 ar
     3    2    4 ar
     4    3    5 ar
     5    4    6 ar
     6    5    6 ar
     7    6   23 1
     8    7   22 1
     9    7   29 am
    10    7   35 2
    11    8    9 1
    12    8   28 1
    13    8   36 2
    14    9   33 am
    15    9   37 2
    16   10   20 1
    17   10   34 am
    18   10   38 2
    19   11   12 1
    20   11   13 1
    21   12   14 1
    22   13   15 1
    23   14   21 1
    24   15   21 1
    25   16   18 1
    26   16   20 1
    27   17   19 1
    28   17   22 1
    29   18   30 1
    30   19   30 1
    31   20   29 1
    32   21   33 1
    33   22   23 1
    34   22   31 1
    35   24   25 1
    36   24   26 1
    37   25   27 1
    38   26   28 1
    39   27   32 1
    40   28   34 1
    41   29   30 1
    42    1   39 1
    43    2   40 1
    44    3   41 1
    45    4   42 1
    46    5   43 1
    47   11   44 1
    48   11   45 1
    49   12   46 1
    50   12   47 1
    51   13   48 1
    52   13   49 1
    53   14   50 1
    54   14   51 1
    55   15   52 1
    56   15   53 1
    57   16   54 1
    58   16   55 1
    59   17   56 1
    60   17   57 1
    61   18   58 1
    62   18   59 1
    63   19   60 1
    64   19   61 1
    65   20   62 1
    66   21   63 1
    67   23   64 1
    68   23   65 1
    69   24   66 1
    70   24   67 1
    71   25   68 1
    72   25   69 1
    73   26   70 1
    74   26   71 1
    75   27   72 1
    76   27   73 1
    77   28   74 1
    78   31   75 1
    79   31   76 1
    80   32   77 1
    81   32   78 1
    82   33   79 1
    83   34   80 1
@<TRIPOS>MOLECULE
1a46_ligand_61
   80    83     0     0     0
SMALL
USER_CHARGES

mmff94s_NoEstat = 82.34
@<TRIPOS>ATOM
      1 C1          1.7409   12.3935   -1.5361 C.ar      1 <0>        -0.1300
      2 C2          2.2430   11.8090   -0.3734 C.ar      1 <0>        -0.1323
      3 C3          1.4857   11.6057   -2.6586 C.ar      1 <0>        -0.1309
      4 C4          2.4901   10.4368   -0.3331 C.ar      1 <0>        -0.1275
      5 C5          1.7328   10.2334   -2.6183 C.ar      1 <0>        -0.1272
      6 C6          2.2334    9.6580   -1.4559 C.ar      1 <0>        -0.0843
      7 C7          4.2075    6.3518   -1.8158 C.2       1 <0>         0.6709
      8 C8          5.2358    2.3798    1.5634 C.2       1 <0>         0.4867
      9 C9          4.0737    1.7586    0.8450 C.2       1 <0>         0.5883
     10 C10         6.5648    4.1956   -1.4701 C.2       1 <0>         0.6572
     11 C11        -0.3436    3.9389    1.2072 C.3       1 <0>        -0.0802
     12 C12         0.1158    3.0864    2.3871 C.3       1 <0>        -0.0765
     13 C13         0.7010    3.9825    0.0951 C.3       1 <0>        -0.0774
     14 C14         0.5285    1.6832    1.9406 C.3       1 <0>        -0.0953
     15 C15         1.1119    2.5771   -0.3462 C.3       1 <0>        -0.0906
     16 C16         6.7154    4.7360   -3.9137 C.3       1 <0>        -0.0871
     17 C17         4.1811    8.4057   -3.2842 C.3       1 <0>        -0.0716
     18 C18         7.2083    6.1802   -3.8482 C.3       1 <0>         0.1333
     19 C19         5.3192    7.7064   -4.0474 C.3       1 <0>         0.1246
     20 C20         5.8189    4.6139   -2.6998 C.3       1 <0>         0.0606
     21 C21         1.5791    1.6990    0.8223 C.3       1 <0>         0.1012
     22 C22         3.9302    7.8611   -1.8583 C.3       1 <0>         0.1554
     23 C23         2.4991    8.1819   -1.4126 C.3       1 <0>        -0.0356
     24 C24         6.0158    5.3379    2.0114 C.3       1 <0>        -0.0795
     25 C25         6.7209    6.4716    2.7653 C.3       1 <0>        -0.1203
     26 C26         6.9719    4.2276    1.5544 C.3       1 <0>        -0.0920
     27 C27         5.7742    7.5909    3.1979 C.3       1 <0>         0.1502
     28 C28         6.2906    3.1130    0.7514 C.3       1 <0>         0.0224
     29 N1          5.3643    5.9735   -2.4795 N.am      1 <0>        -0.3553
     30 N2          6.1593    6.9309   -3.1367 N.3       1 <0>        -0.4320
     31 N3          4.8633    8.4685   -0.8981 N.3       1 <0>        -0.9031
     32 N4          6.5168    8.6391    3.8900 N.3       1 <0>        -0.9068
     33 N5          2.8617    2.1823    1.3384 N.am      1 <0>        -0.5526
     34 N6          5.7762    3.5917   -0.5046 N.am      1 <0>        -0.5576
     35 O1          3.4676    5.5621   -1.2293 O.2       1 <0>        -0.6710
     36 O2          5.3022    2.1819    2.7699 O.2       1 <0>        -0.4901
     37 O3          4.3127    0.9617   -0.0474 O.2       1 <0>        -0.5902
     38 O4          7.7705    4.4014   -1.3956 O.2       1 <0>        -0.5833
     39 H1          1.5486   13.4619   -1.5674 H         1 <0>         0.1320
     40 H2          2.4416   12.4225    0.5006 H         1 <0>         0.1324
     41 H3          1.0949   12.0609   -3.5639 H         1 <0>         0.1328
     42 H4          2.8813    9.9902    0.5771 H         1 <0>         0.1324
     43 H5          1.5311    9.6276   -3.4978 H         1 <0>         0.1434
     44 H6         -1.2806    3.5308    0.8085 H         1 <0>         0.0405
     45 H7         -0.5604    4.9570    1.5500 H         1 <0>         0.0421
     46 H8          0.9580    3.5789    2.8881 H         1 <0>         0.0362
     47 H9         -0.6922    3.0137    3.1241 H         1 <0>         0.0439
     48 H10         0.3007    4.5341   -0.7632 H         1 <0>         0.0350
     49 H11         1.5824    4.5346    0.4431 H         1 <0>         0.0428
     50 H12         0.9075    1.1267    2.8064 H         1 <0>         0.0663
     51 H13        -0.3617    1.1491    1.5846 H         1 <0>         0.0466
     52 H14         0.2553    2.0945   -0.8337 H         1 <0>         0.0493
     53 H15         1.9046    2.6542   -1.1003 H         1 <0>         0.0520
     54 H16         6.1203    4.5986   -4.8250 H         1 <0>         0.0915
     55 H17         7.5395    4.0162   -3.9259 H         1 <0>         0.0601
     56 H18         4.3839    9.4843   -3.2353 H         1 <0>         0.0688
     57 H19         3.2652    8.3026   -3.8819 H         1 <0>         0.0630
     58 H20         8.1249    6.2239   -3.2478 H         1 <0>         0.0807
     59 H21         7.4504    6.5803   -4.8390 H         1 <0>         0.0380
     60 H22         4.8852    7.0622   -4.8247 H         1 <0>         0.0484
     61 H23         5.9181    8.4662   -4.5637 H         1 <0>         0.0697
     62 H24         4.9753    3.9333   -2.8455 H         1 <0>         0.0843
     63 H25         1.7624    0.6785    0.4701 H         1 <0>         0.0831
     64 H26         2.3479    7.7977   -0.4022 H         1 <0>         0.0704
     65 H27         1.7988    7.6502   -2.0594 H         1 <0>         0.0718
     66 H28         5.2579    4.9142    2.6804 H         1 <0>         0.0606
     67 H29         5.4809    5.7546    1.1500 H         1 <0>         0.0458
     68 H30         7.2000    6.0392    3.6534 H         1 <0>         0.0375
     69 H31         7.5258    6.8807    2.1417 H         1 <0>         0.0392
     70 H32         7.4599    3.7926    2.4354 H         1 <0>         0.0606
     71 H33         7.7645    4.6634    0.9347 H         1 <0>         0.0579
     72 H34         4.9986    7.1962    3.8630 H         1 <0>         0.0571
     73 H35         5.2784    8.0349    2.3297 H         1 <0>         0.0503
     74 H36         7.0421    2.3587    0.4881 H         1 <0>         0.0993
     75 H37         5.7856    8.6648   -1.2112 H         1 <0>         0.3700
     76 H38         4.6041    8.4681    0.0612 H         1 <0>         0.3660
     77 H39         5.9996    9.3711    4.3277 H         1 <0>         0.3465
     78 H40         7.4997    8.7018    3.7315 H         1 <0>         0.3446
     79 H41         2.8559    2.8605    2.0944 H         1 <0>         0.3148
     80 H42         4.7816    3.4809   -0.6931 H         1 <0>         0.3220
@<TRIPOS>BOND
     1    1    2 ar
     2    1    3 ar
     3    2    4 ar
     4    3    5 ar
     5    4    6 ar
     6    5    6 ar
     7    6   23 1
     8    7   22 1
     9    7   29 am
    10    7   35 2
    11    8    9 1
    12    8   28 1
    13    8   36 2
    14    9   33 am
    15    9   37 2
    16   10   20 1
    17   10   34 am
    18   10   38 2
    19   11   12 1
    20   11   13 1
    21   12   14 1
    22   13   15 1
    23   14   21 1
    24   15   21 1
    25   16   18 1
    26   16   20 1
    27   17   19 1
    28   17   22 1
    29   18   30 1
    30   19   30 1
    31   20   29 1
    32   21   33 1
    33   22   23 1
    34   22   31 1
    35   24   25 1
    36   24   26 1
    37   25   27 1
    38   26   28 1
    39   27   32 1
    40   28   34 1
    41   29   30 1
    42    1   39 1
    43    2   40 1
    44    3   41 1
    45    4   42 1
    46    5   43 1
    47   11   44 1
    48   11   45 1
    49   12   46 1
    50   12   47 1
    51   13   48 1
    52   13   49 1
    53   14   50 1
    54   14   51 1
    55   15   52 1
    56   15   53 1
    57   16   54 1
    58   16   55 1
    59   17   56 1
    60   17   57 1
    61   18   58 1
    62   18   59 1
    63   19   60 1
    64   19   61 1
    65   20   62 1
    66   21   63 1
    67   23   64 1
    68   23   65 1
    69   24   66 1
    70   24   67 1
    71   25   68 1
    72   25   69 1
    73   26   70 1
    74   26   71 1
    75   27   72 1
    76   27   73 1
    77   28   74 1
    78   31   75 1
    79   31   76 1
    80   32   77 1
    81   32   78 1
    82   33   79 1
    83   34   80 1
@<TRIPOS>MOLECULE
1a46_ligand_62
   80    83     0     0     0
SMALL
USER_CHARGES

mmff94s_NoEstat = 82.35
@<TRIPOS>ATOM
      1 C1          5.6982   13.0256   -2.9158 C.ar      1 <0>        -0.1300
      2 C2          6.1379   12.4463   -1.7256 C.ar      1 <0>        -0.1323
      3 C3          4.9080   12.2902   -3.7992 C.ar      1 <0>        -0.1309
      4 C4          5.7876   11.1315   -1.4188 C.ar      1 <0>        -0.1275
      5 C5          4.5577   10.9753   -3.4925 C.ar      1 <0>        -0.1272
      6 C6          4.9998   10.4046   -2.3043 C.ar      1 <0>        -0.0843
      7 C7          5.2783    6.5491   -2.1791 C.2       1 <0>         0.6709
      8 C8          5.2358    2.3798    1.5634 C.2       1 <0>         0.4867
      9 C9          4.0737    1.7586    0.8450 C.2       1 <0>         0.5883
     10 C10         6.5256    3.6321   -1.6689 C.2       1 <0>         0.6572
     11 C11        -0.3101    1.8066    3.1204 C.3       1 <0>        -0.0802
     12 C12         0.7521    0.7144    3.0271 C.3       1 <0>        -0.0765
     13 C13         0.1163    3.0793    2.3936 C.3       1 <0>        -0.0774
     14 C14         1.1457    0.4346    1.5761 C.3       1 <0>        -0.0953
     15 C15         0.5110    2.7940    0.9439 C.3       1 <0>        -0.0906
     16 C16         6.3772    3.6983   -4.1707 C.3       1 <0>        -0.0871
     17 C17         5.8129    8.1649   -4.0442 C.3       1 <0>        -0.0716
     18 C18         7.4333    4.7567   -4.4831 C.3       1 <0>         0.1333
     19 C19         6.3652    6.9275   -4.7727 C.3       1 <0>         0.1246
     20 C20         5.7868    4.1659   -2.8575 C.3       1 <0>         0.0606
     21 C21         1.5791    1.6990    0.8223 C.3       1 <0>         0.1012
     22 C22         5.6591    7.9981   -2.5141 C.3       1 <0>         0.1554
     23 C23         4.6229    8.9902   -1.9743 C.3       1 <0>        -0.0356
     24 C24         6.0158    5.3379    2.0114 C.3       1 <0>        -0.0795
     25 C25         6.7209    6.4716    2.7653 C.3       1 <0>        -0.1203
     26 C26         6.9719    4.2276    1.5544 C.3       1 <0>        -0.0920
     27 C27         5.7742    7.5909    3.1979 C.3       1 <0>         0.1502
     28 C28         6.2906    3.1130    0.7514 C.3       1 <0>         0.0224
     29 N1          6.0028    5.5999   -2.8834 N.am      1 <0>        -0.3553
     30 N2          6.9706    5.9918   -3.8269 N.3       1 <0>        -0.4320
     31 N3          6.9384    8.2454   -1.8330 N.3       1 <0>        -0.9031
     32 N4          4.7531    7.0666    4.0988 N.3       1 <0>        -0.9068
     33 N5          2.8617    2.1823    1.3384 N.am      1 <0>        -0.5526
     34 N6          5.7762    3.5917   -0.5046 N.am      1 <0>        -0.5576
     35 O1          4.4149    6.2702   -1.3473 O.2       1 <0>        -0.6710
     36 O2          5.3022    2.1819    2.7699 O.2       1 <0>        -0.4901
     37 O3          4.3127    0.9617   -0.0474 O.2       1 <0>        -0.5902
     38 O4          7.6924    3.2783   -1.7917 O.2       1 <0>        -0.5833
     39 H1          5.9710   14.0494   -3.1547 H         1 <0>         0.1320
     40 H2          6.7531   13.0191   -1.0378 H         1 <0>         0.1324
     41 H3          4.5659   12.7413   -4.7260 H         1 <0>         0.1328
     42 H4          6.1348   10.6884   -0.4892 H         1 <0>         0.1324
     43 H5          3.9418   10.4100   -4.1868 H         1 <0>         0.1434
     44 H6         -1.2478    1.4382    2.6861 H         1 <0>         0.0405
     45 H7         -0.5145    2.0336    4.1728 H         1 <0>         0.0421
     46 H8          1.6374    1.0154    3.6002 H         1 <0>         0.0362
     47 H9          0.3743   -0.2054    3.4883 H         1 <0>         0.0439
     48 H10        -0.7038    3.8062    2.4141 H         1 <0>         0.0350
     49 H11         0.9594    3.5381    2.9241 H         1 <0>         0.0428
     50 H12         1.9510   -0.3097    1.5585 H         1 <0>         0.0663
     51 H13         0.2884   -0.0125    1.0569 H         1 <0>         0.0466
     52 H14        -0.3828    2.4825    0.3884 H         1 <0>         0.0493
     53 H15         0.8670    3.7212    0.4787 H         1 <0>         0.0520
     54 H16         5.6043    3.7190   -4.9489 H         1 <0>         0.0915
     55 H17         6.7998    2.6898   -4.1286 H         1 <0>         0.0601
     56 H18         6.4556    9.0301   -4.2569 H         1 <0>         0.0688
     57 H19         4.8364    8.4048   -4.4864 H         1 <0>         0.0630
     58 H20         8.3862    4.4645   -4.0255 H         1 <0>         0.0807
     59 H21         7.6091    4.8610   -5.5594 H         1 <0>         0.0380
     60 H22         5.5493    6.4477   -5.3309 H         1 <0>         0.0484
     61 H23         7.1061    7.2537   -5.5124 H         1 <0>         0.0697
     62 H24         4.7253    3.9276   -2.7453 H         1 <0>         0.0843
     63 H25         1.7501    1.4622   -0.2331 H         1 <0>         0.0831
     64 H26         4.5381    8.8614   -0.8937 H         1 <0>         0.0704
     65 H27         3.6462    8.7482   -2.3975 H         1 <0>         0.0718
     66 H28         5.2579    4.9142    2.6804 H         1 <0>         0.0606
     67 H29         5.4809    5.7546    1.1500 H         1 <0>         0.0458
     68 H30         7.2000    6.0392    3.6534 H         1 <0>         0.0375
     69 H31         7.5258    6.8807    2.1417 H         1 <0>         0.0392
     70 H32         7.4599    3.7926    2.4354 H         1 <0>         0.0606
     71 H33         7.7645    4.6634    0.9347 H         1 <0>         0.0579
     72 H34         5.2908    8.0386    2.3228 H         1 <0>         0.0571
     73 H35         6.3225    8.3806    3.7198 H         1 <0>         0.0503
     74 H36         7.0421    2.3587    0.4881 H         1 <0>         0.0993
     75 H37         7.7703    7.9574   -2.2937 H         1 <0>         0.3700
     76 H38         6.9090    8.4964   -0.8720 H         1 <0>         0.3660
     77 H39         4.0028    7.6695    4.3608 H         1 <0>         0.3465
     78 H40         4.9421    6.2118    4.5770 H         1 <0>         0.3446
     79 H41         2.8559    2.8605    2.0944 H         1 <0>         0.3148
     80 H42         4.8120    3.9176   -0.5391 H         1 <0>         0.3220
@<TRIPOS>BOND
     1    1    2 ar
     2    1    3 ar
     3    2    4 ar
     4    3    5 ar
     5    4    6 ar
     6    5    6 ar
     7    6   23 1
     8    7   22 1
     9    7   29 am
    10    7   35 2
    11    8    9 1
    12    8   28 1
    13    8   36 2
    14    9   33 am
    15    9   37 2
    16   10   20 1
    17   10   34 am
    18   10   38 2
    19   11   12 1
    20   11   13 1
    21   12   14 1
    22   13   15 1
    23   14   21 1
    24   15   21 1
    25   16   18 1
    26   16   20 1
    27   17   19 1
    28   17   22 1
    29   18   30 1
    30   19   30 1
    31   20   29 1
    32   21   33 1
    33   22   23 1
    34   22   31 1
    35   24   25 1
    36   24   26 1
    37   25   27 1
    38   26   28 1
    39   27   32 1
    40   28   34 1
    41   29   30 1
    42    1   39 1
    43    2   40 1
    44    3   41 1
    45    4   42 1
    46    5   43 1
    47   11   44 1
    48   11   45 1
    49   12   46 1
    50   12   47 1
    51   13   48 1
    52   13   49 1
    53   14   50 1
    54   14   51 1
    55   15   52 1
    56   15   53 1
    57   16   54 1
    58   16   55 1
    59   17   56 1
    60   17   57 1
    61   18   58 1
    62   18   59 1
    63   19   60 1
    64   19   61 1
    65   20   62 1
    66   21   63 1
    67   23   64 1
    68   23   65 1
    69   24   66 1
    70   24   67 1
    71   25   68 1
    72   25   69 1
    73   26   70 1
    74   26   71 1
    75   27   72 1
    76   27   73 1
    77   28   74 1
    78   31   75 1
    79   31   76 1
    80   32   77 1
    81   32   78 1
    82   33   79 1
    83   34   80 1
@<TRIPOS>MOLECULE
1a46_ligand_63
   80    83     0     0     0
SMALL
USER_CHARGES

mmff94s_NoEstat = 82.35
@<TRIPOS>ATOM
      1 C1         -2.6445   10.2618   -2.2387 C.ar      1 <0>        -0.1300
      2 C2         -2.3767    9.6884   -0.9957 C.ar      1 <0>        -0.1323
      3 C3         -2.1497    9.6701   -3.4009 C.ar      1 <0>        -0.1309
      4 C4         -1.6141    8.5233   -0.9148 C.ar      1 <0>        -0.1275
      5 C5         -1.3871    8.5049   -3.3201 C.ar      1 <0>        -0.1272
      6 C6         -1.1243    7.9391   -2.0776 C.ar      1 <0>        -0.0843
      7 C7          2.0326    5.7272   -1.7627 C.2       1 <0>         0.6709
      8 C8          5.2358    2.3798    1.5634 C.2       1 <0>         0.4867
      9 C9          4.0737    1.7586    0.8450 C.2       1 <0>         0.5883
     10 C10         4.7954    4.5647   -0.6048 C.2       1 <0>         0.6572
     11 C11        -0.3101    1.8066    3.1204 C.3       1 <0>        -0.0802
     12 C12         0.7521    0.7144    3.0271 C.3       1 <0>        -0.0765
     13 C13         0.1163    3.0793    2.3936 C.3       1 <0>        -0.0774
     14 C14         1.1457    0.4346    1.5761 C.3       1 <0>        -0.0953
     15 C15         0.5110    2.7940    0.9439 C.3       1 <0>        -0.0906
     16 C16         5.5346    5.5870   -2.7713 C.3       1 <0>        -0.0871
     17 C17         1.6625    7.8714   -3.0437 C.3       1 <0>        -0.0716
     18 C18         5.3303    7.0689   -2.4625 C.3       1 <0>         0.1333
     19 C19         3.1731    7.8019   -3.3266 C.3       1 <0>         0.1246
     20 C20         4.4137    4.9104   -2.0113 C.3       1 <0>         0.0606
     21 C21         1.5791    1.6990    0.8223 C.3       1 <0>         0.1012
     22 C22         1.1885    7.0064   -1.8522 C.3       1 <0>         0.1554
     23 C23        -0.3040    6.6858   -1.9906 C.3       1 <0>        -0.0356
     24 C24         8.0800    4.9598    0.7851 C.3       1 <0>        -0.0795
     25 C25         8.7880    6.0338    1.6192 C.3       1 <0>        -0.1203
     26 C26         6.9719    4.2276    1.5544 C.3       1 <0>        -0.0920
     27 C27         9.9095    6.7454    0.8629 C.3       1 <0>         0.1502
     28 C28         6.2906    3.1130    0.7514 C.3       1 <0>         0.0224
     29 N1          3.3921    5.9372   -1.9343 N.am      1 <0>        -0.3553
     30 N2          3.8913    7.2279   -2.1903 N.3       1 <0>        -0.4320
     31 N3          1.3958    7.7147   -0.5806 N.3       1 <0>        -0.9031
     32 N4         10.5470    7.7366    1.7233 N.3       1 <0>        -0.9068
     33 N5          2.8617    2.1823    1.3384 N.am      1 <0>        -0.5526
     34 N6          5.7762    3.5917   -0.5046 N.am      1 <0>        -0.5576
     35 O1          1.5345    4.6231   -1.5437 O.2       1 <0>        -0.6710
     36 O2          5.3022    2.1819    2.7699 O.2       1 <0>        -0.4901
     37 O3          4.3127    0.9617   -0.0474 O.2       1 <0>        -0.5902
     38 O4          4.2448    5.1367    0.3286 O.2       1 <0>        -0.5833
     39 H1         -3.2382   11.1691   -2.3016 H         1 <0>         0.1320
     40 H2         -2.7620   10.1493   -0.0908 H         1 <0>         0.1324
     41 H3         -2.3582   10.1168   -4.3687 H         1 <0>         0.1328
     42 H4         -1.4106    8.0836    0.0580 H         1 <0>         0.1324
     43 H5         -1.0058    8.0510   -4.2309 H         1 <0>         0.1434
     44 H6         -1.2478    1.4382    2.6861 H         1 <0>         0.0405
     45 H7         -0.5145    2.0336    4.1728 H         1 <0>         0.0421
     46 H8          1.6374    1.0154    3.6002 H         1 <0>         0.0362
     47 H9          0.3743   -0.2054    3.4883 H         1 <0>         0.0439
     48 H10        -0.7038    3.8062    2.4141 H         1 <0>         0.0350
     49 H11         0.9594    3.5381    2.9241 H         1 <0>         0.0428
     50 H12         1.9510   -0.3097    1.5585 H         1 <0>         0.0663
     51 H13         0.2884   -0.0125    1.0569 H         1 <0>         0.0466
     52 H14        -0.3828    2.4825    0.3884 H         1 <0>         0.0493
     53 H15         0.8670    3.7212    0.4787 H         1 <0>         0.0520
     54 H16         5.4011    5.4209   -3.8475 H         1 <0>         0.0915
     55 H17         6.5319    5.2374   -2.4876 H         1 <0>         0.0601
     56 H18         1.3705    8.9173   -2.8778 H         1 <0>         0.0688
     57 H19         1.1370    7.5576   -3.9559 H         1 <0>         0.0630
     58 H20         5.8802    7.3284   -1.5498 H         1 <0>         0.0807
     59 H21         5.7080    7.7145   -3.2631 H         1 <0>         0.0380
     60 H22         3.3395    7.2079   -4.2360 H         1 <0>         0.0484
     61 H23         3.5406    8.8134   -3.5374 H         1 <0>         0.0697
     62 H24         4.0335    4.0099   -2.5019 H         1 <0>         0.0843
     63 H25         1.7501    1.4622   -0.2331 H         1 <0>         0.0831
     64 H26        -0.6181    6.0842   -1.1357 H         1 <0>         0.0704
     65 H27        -0.4536    6.0709   -2.8800 H         1 <0>         0.0718
     66 H28         7.6494    5.4516   -0.0948 H         1 <0>         0.0606
     67 H29         8.8216    4.2418    0.4157 H         1 <0>         0.0458
     68 H30         8.0356    6.7709    1.9287 H         1 <0>         0.0375
     69 H31         9.1825    5.5824    2.5383 H         1 <0>         0.0392
     70 H32         6.2171    4.9575    1.8728 H         1 <0>         0.0606
     71 H33         7.3929    3.7874    2.4660 H         1 <0>         0.0579
     72 H34         9.5108    7.2416   -0.0285 H         1 <0>         0.0571
     73 H35        10.6706    6.0303    0.5375 H         1 <0>         0.0503
     74 H36         7.0421    2.3587    0.4881 H         1 <0>         0.0993
     75 H37         2.1998    8.2929   -0.4996 H         1 <0>         0.3700
     76 H38         0.8492    7.4324    0.1998 H         1 <0>         0.3660
     77 H39        11.2163    8.3531    1.3147 H         1 <0>         0.3465
     78 H40        10.4498    7.6340    2.7108 H         1 <0>         0.3446
     79 H41         2.8559    2.8605    2.0944 H         1 <0>         0.3148
     80 H42         6.1527    3.1949   -1.3636 H         1 <0>         0.3220
@<TRIPOS>BOND
     1    1    2 ar
     2    1    3 ar
     3    2    4 ar
     4    3    5 ar
     5    4    6 ar
     6    5    6 ar
     7    6   23 1
     8    7   22 1
     9    7   29 am
    10    7   35 2
    11    8    9 1
    12    8   28 1
    13    8   36 2
    14    9   33 am
    15    9   37 2
    16   10   20 1
    17   10   34 am
    18   10   38 2
    19   11   12 1
    20   11   13 1
    21   12   14 1
    22   13   15 1
    23   14   21 1
    24   15   21 1
    25   16   18 1
    26   16   20 1
    27   17   19 1
    28   17   22 1
    29   18   30 1
    30   19   30 1
    31   20   29 1
    32   21   33 1
    33   22   23 1
    34   22   31 1
    35   24   25 1
    36   24   26 1
    37   25   27 1
    38   26   28 1
    39   27   32 1
    40   28   34 1
    41   29   30 1
    42    1   39 1
    43    2   40 1
    44    3   41 1
    45    4   42 1
    46    5   43 1
    47   11   44 1
    48   11   45 1
    49   12   46 1
    50   12   47 1
    51   13   48 1
    52   13   49 1
    53   14   50 1
    54   14   51 1
    55   15   52 1
    56   15   53 1
    57   16   54 1
    58   16   55 1
    59   17   56 1
    60   17   57 1
    61   18   58 1
    62   18   59 1
    63   19   60 1
    64   19   61 1
    65   20   62 1
    66   21   63 1
    67   23   64 1
    68   23   65 1
    69   24   66 1
    70   24   67 1
    71   25   68 1
    72   25   69 1
    73   26   70 1
    74   26   71 1
    75   27   72 1
    76   27   73 1
    77   28   74 1
    78   31   75 1
    79   31   76 1
    80   32   77 1
    81   32   78 1
    82   33   79 1
    83   34   80 1
@<TRIPOS>MOLECULE
1a46_ligand_64
   80    83     0     0     0
SMALL
USER_CHARGES

mmff94s_NoEstat = 82.37
@<TRIPOS>ATOM
      1 C1          5.9504   -1.3642  -10.1903 C.ar      1 <0>        -0.1300
      2 C2          6.6765   -1.8241   -9.0918 C.ar      1 <0>        -0.1323
      3 C3          5.5463   -0.0305  -10.2504 C.ar      1 <0>        -0.1309
      4 C4          6.9984   -0.9504   -8.0532 C.ar      1 <0>        -0.1275
      5 C5          5.8681    0.8432   -9.2119 C.ar      1 <0>        -0.1272
      6 C6          6.5921    0.3776   -8.1201 C.ar      1 <0>        -0.0843
      7 C7          6.1974    2.2868   -4.7798 C.2       1 <0>         0.6709
      8 C8          5.2358    2.3798    1.5634 C.2       1 <0>         0.4867
      9 C9          5.6457    1.7076    2.8411 C.2       1 <0>         0.5883
     10 C10         5.7098    2.8119   -1.6475 C.2       1 <0>         0.6572
     11 C11         9.7235   -1.0796    2.8207 C.3       1 <0>        -0.0802
     12 C12         8.4526   -1.6930    2.2388 C.3       1 <0>        -0.0765
     13 C13         9.4972    0.3517    3.3002 C.3       1 <0>        -0.0774
     14 C14         7.2832   -1.6014    3.2201 C.3       1 <0>        -0.0953
     15 C15         8.3255    0.4384    4.2793 C.3       1 <0>        -0.0906
     16 C16         3.6723    3.8570   -2.6681 C.3       1 <0>        -0.0871
     17 C17         4.4858    1.7161   -6.5463 C.3       1 <0>        -0.0716
     18 C18         2.9535    2.6133   -3.1875 C.3       1 <0>         0.1333
     19 C19         3.4659    2.2898   -5.5476 C.3       1 <0>         0.1246
     20 C20         5.1372    3.5153   -2.8394 C.3       1 <0>         0.0606
     21 C21         7.0342   -0.1713    3.7178 C.3       1 <0>         0.1012
     22 C22         5.8481    1.3265   -5.9256 C.3       1 <0>         0.1554
     23 C23         6.9383    1.3175   -7.0029 C.3       1 <0>        -0.0356
     24 C24         8.0800    4.9598    0.7851 C.3       1 <0>        -0.0795
     25 C25         8.7880    6.0338    1.6192 C.3       1 <0>        -0.1203
     26 C26         6.9719    4.2276    1.5544 C.3       1 <0>        -0.0920
     27 C27         9.9095    6.7454    0.8629 C.3       1 <0>         0.1502
     28 C28         6.2906    3.1130    0.7514 C.3       1 <0>         0.0224
     29 N1          5.1345    2.5635   -3.9339 N.am      1 <0>        -0.3553
     30 N2          3.8653    2.0037   -4.1710 N.3       1 <0>        -0.4320
     31 N3          5.7803   -0.0123   -5.3216 N.3       1 <0>        -0.9031
     32 N4         10.5470    7.7366    1.7233 N.3       1 <0>        -0.9068
     33 N5          6.5118    0.6599    2.6310 N.am      1 <0>        -0.5526
     34 N6          5.7762    3.5917   -0.5046 N.am      1 <0>        -0.5576
     35 O1          7.3278    2.7504   -4.6301 O.2       1 <0>        -0.6710
     36 O2          4.0412    2.3628    1.2952 O.2       1 <0>        -0.4901
     37 O3          5.1730    2.1266    3.8850 O.2       1 <0>        -0.5902
     38 O4          6.0670    1.6440   -1.7490 O.2       1 <0>        -0.5833
     39 H1          5.6997   -2.0446  -10.9989 H         1 <0>         0.1320
     40 H2          6.9911   -2.8626   -9.0451 H         1 <0>         0.1324
     41 H3          4.9808    0.3274  -11.1059 H         1 <0>         0.1328
     42 H4          7.5644   -1.3176   -7.2012 H         1 <0>         0.1324
     43 H5          5.5489    1.8806   -9.2673 H         1 <0>         0.1434
     44 H6         10.0697   -1.6931    3.6617 H         1 <0>         0.0405
     45 H7         10.5190   -1.0948    2.0671 H         1 <0>         0.0421
     46 H8          8.1939   -1.1805    1.3044 H         1 <0>         0.0362
     47 H9          8.6355   -2.7431    1.9836 H         1 <0>         0.0439
     48 H10        10.4072    0.7253    3.7834 H         1 <0>         0.0350
     49 H11         9.3078    1.0008    2.4368 H         1 <0>         0.0428
     50 H12         6.3793   -1.9968    2.7410 H         1 <0>         0.0663
     51 H13         7.4938   -2.2464    4.0826 H         1 <0>         0.0466
     52 H14         8.5960   -0.0894    5.2028 H         1 <0>         0.0493
     53 H15         8.1600    1.4882    4.5503 H         1 <0>         0.0520
     54 H16         3.4181    4.7133   -3.3051 H         1 <0>         0.0915
     55 H17         3.3944    4.0971   -1.6373 H         1 <0>         0.0601
     56 H18         4.0497    0.8441   -7.0524 H         1 <0>         0.0688
     57 H19         4.6431    2.4675   -7.3320 H         1 <0>         0.0630
     58 H20         2.8170    1.9026   -2.3635 H         1 <0>         0.0807
     59 H21         1.9588    2.8453   -3.5837 H         1 <0>         0.0380
     60 H22         3.3744    3.3723   -5.7123 H         1 <0>         0.0484
     61 H23         2.4818    1.8533   -5.7569 H         1 <0>         0.0697
     62 H24         5.7646    4.3810   -3.0694 H         1 <0>         0.0843
     63 H25         6.2589   -0.1767    4.4911 H         1 <0>         0.0831
     64 H26         7.8868    1.0311   -6.5450 H         1 <0>         0.0704
     65 H27         7.0672    2.3317   -7.3854 H         1 <0>         0.0718
     66 H28         7.6494    5.4516   -0.0948 H         1 <0>         0.0606
     67 H29         8.8216    4.2418    0.4157 H         1 <0>         0.0458
     68 H30         8.0356    6.7709    1.9287 H         1 <0>         0.0375
     69 H31         9.1825    5.5824    2.5383 H         1 <0>         0.0392
     70 H32         6.2171    4.9575    1.8728 H         1 <0>         0.0606
     71 H33         7.3929    3.7874    2.4660 H         1 <0>         0.0579
     72 H34         9.5108    7.2416   -0.0285 H         1 <0>         0.0571
     73 H35        10.6706    6.0303    0.5375 H         1 <0>         0.0503
     74 H36         7.0421    2.3587    0.4881 H         1 <0>         0.0993
     75 H37         4.9287   -0.2795   -4.8849 H         1 <0>         0.3700
     76 H38         6.6336   -0.5056   -5.1950 H         1 <0>         0.3660
     77 H39        11.2163    8.3531    1.3147 H         1 <0>         0.3465
     78 H40        10.4498    7.6340    2.7108 H         1 <0>         0.3446
     79 H41         6.8020    0.4535    1.6799 H         1 <0>         0.3148
     80 H42         5.4441    4.5531   -0.5557 H         1 <0>         0.3220
@<TRIPOS>BOND
     1    1    2 ar
     2    1    3 ar
     3    2    4 ar
     4    3    5 ar
     5    4    6 ar
     6    5    6 ar
     7    6   23 1
     8    7   22 1
     9    7   29 am
    10    7   35 2
    11    8    9 1
    12    8   28 1
    13    8   36 2
    14    9   33 am
    15    9   37 2
    16   10   20 1
    17   10   34 am
    18   10   38 2
    19   11   12 1
    20   11   13 1
    21   12   14 1
    22   13   15 1
    23   14   21 1
    24   15   21 1
    25   16   18 1
    26   16   20 1
    27   17   19 1
    28   17   22 1
    29   18   30 1
    30   19   30 1
    31   20   29 1
    32   21   33 1
    33   22   23 1
    34   22   31 1
    35   24   25 1
    36   24   26 1
    37   25   27 1
    38   26   28 1
    39   27   32 1
    40   28   34 1
    41   29   30 1
    42    1   39 1
    43    2   40 1
    44    3   41 1
    45    4   42 1
    46    5   43 1
    47   11   44 1
    48   11   45 1
    49   12   46 1
    50   12   47 1
    51   13   48 1
    52   13   49 1
    53   14   50 1
    54   14   51 1
    55   15   52 1
    56   15   53 1
    57   16   54 1
    58   16   55 1
    59   17   56 1
    60   17   57 1
    61   18   58 1
    62   18   59 1
    63   19   60 1
    64   19   61 1
    65   20   62 1
    66   21   63 1
    67   23   64 1
    68   23   65 1
    69   24   66 1
    70   24   67 1
    71   25   68 1
    72   25   69 1
    73   26   70 1
    74   26   71 1
    75   27   72 1
    76   27   73 1
    77   28   74 1
    78   31   75 1
    79   31   76 1
    80   32   77 1
    81   32   78 1
    82   33   79 1
    83   34   80 1
@<TRIPOS>MOLECULE
1a46_ligand_65
   80    83     0     0     0
SMALL
USER_CHARGES

mmff94s_NoEstat = 82.38
@<TRIPOS>ATOM
      1 C1          9.3427    1.2226  -10.2936 C.ar      1 <0>        -0.1300
      2 C2          9.9666    0.8172   -9.1138 C.ar      1 <0>        -0.1323
      3 C3          8.4336    2.2805  -10.2739 C.ar      1 <0>        -0.1309
      4 C4          9.6814    1.4695   -7.9143 C.ar      1 <0>        -0.1275
      5 C5          8.1485    2.9328   -9.0744 C.ar      1 <0>        -0.1272
      6 C6          8.7742    2.5231   -7.9024 C.ar      1 <0>        -0.0843
      7 C7          6.9710    3.2795   -4.5657 C.2       1 <0>         0.6709
      8 C8          5.2358    2.3798    1.5634 C.2       1 <0>         0.4867
      9 C9          5.6522    1.1980    2.3894 C.2       1 <0>         0.5883
     10 C10         5.7098    2.8119   -1.6475 C.2       1 <0>         0.6572
     11 C11         5.8911   -3.1928    0.1399 C.3       1 <0>        -0.0802
     12 C12         4.7903   -2.5697    0.9943 C.3       1 <0>        -0.0765
     13 C13         7.0788   -2.2502   -0.0351 C.3       1 <0>        -0.0774
     14 C14         5.3303   -2.0814    2.3392 C.3       1 <0>        -0.0953
     15 C15         7.6136   -1.7629    1.3123 C.3       1 <0>        -0.0906
     16 C16         3.6624    3.2324   -3.0320 C.3       1 <0>        -0.0871
     17 C17         6.0388    2.5547   -6.7975 C.3       1 <0>        -0.0716
     18 C18         3.6514    1.9752   -3.8994 C.3       1 <0>         0.1333
     19 C19         4.6996    2.4463   -6.0480 C.3       1 <0>         0.1246
     20 C20         5.1372    3.5153   -2.8394 C.3       1 <0>         0.0606
     21 C21         6.5260   -1.1310    2.1912 C.3       1 <0>         0.1012
     22 C22         7.2891    2.5653   -5.8869 C.3       1 <0>         0.1554
     23 C23         8.4675    3.2247   -6.6121 C.3       1 <0>        -0.0356
     24 C24         6.0158    5.3379    2.0114 C.3       1 <0>        -0.0795
     25 C25         6.7209    6.4716    2.7653 C.3       1 <0>        -0.1203
     26 C26         6.9719    4.2276    1.5544 C.3       1 <0>        -0.0920
     27 C27         5.7742    7.5909    3.1979 C.3       1 <0>         0.1502
     28 C28         6.2906    3.1130    0.7514 C.3       1 <0>         0.0224
     29 N1          5.7488    2.9259   -4.0152 N.am      1 <0>        -0.3553
     30 N2          4.9069    2.0073   -4.6693 N.3       1 <0>        -0.4320
     31 N3          7.6768    1.1953   -5.5201 N.3       1 <0>        -0.9031
     32 N4          6.5168    8.6391    3.8900 N.3       1 <0>        -0.9068
     33 N5          6.0911    0.1457    1.6201 N.am      1 <0>        -0.5526
     34 N6          5.7762    3.5917   -0.5046 N.am      1 <0>        -0.5576
     35 O1          7.7474    4.0812   -4.0464 O.2       1 <0>        -0.6710
     36 O2          4.0675    2.7325    1.6631 O.2       1 <0>        -0.4901
     37 O3          5.5431    1.2807    3.6019 O.2       1 <0>        -0.5902
     38 O4          6.0670    1.6440   -1.7490 O.2       1 <0>        -0.5833
     39 H1          9.5646    0.7147  -11.2275 H         1 <0>         0.1320
     40 H2         10.6743   -0.0064   -9.1292 H         1 <0>         0.1324
     41 H3          7.9478    2.5960  -11.1926 H         1 <0>         0.1328
     42 H4         10.1723    1.1467   -7.0000 H         1 <0>         0.1324
     43 H5          7.4388    3.7559   -9.0687 H         1 <0>         0.1434
     44 H6          6.2329   -4.1227    0.6110 H         1 <0>         0.0405
     45 H7          5.4871   -3.4636   -0.8422 H         1 <0>         0.0421
     46 H8          4.3356   -1.7325    0.4511 H         1 <0>         0.0362
     47 H9          3.9961   -3.3058    1.1637 H         1 <0>         0.0439
     48 H10         7.8774   -2.7635   -0.5827 H         1 <0>         0.0350
     49 H11         6.7768   -1.3914   -0.6467 H         1 <0>         0.0428
     50 H12         4.5228   -1.5882    2.8938 H         1 <0>         0.0663
     51 H13         5.6388   -2.9510    2.9333 H         1 <0>         0.0466
     52 H14         8.0534   -2.6142    1.8474 H         1 <0>         0.0493
     53 H15         8.4235   -1.0439    1.1392 H         1 <0>         0.0520
     54 H16         3.1996    4.0578   -3.5869 H         1 <0>         0.0915
     55 H17         3.1150    3.0948   -2.0945 H         1 <0>         0.0601
     56 H18         6.1186    1.7328   -7.5220 H         1 <0>         0.0688
     57 H19         6.0134    3.4760   -7.3953 H         1 <0>         0.0630
     58 H20         3.6705    1.0888   -3.2538 H         1 <0>         0.0807
     59 H21         2.7495    1.9066   -4.5175 H         1 <0>         0.0380
     60 H22         4.1937    3.4213   -6.0771 H         1 <0>         0.0484
     61 H23         4.0529    1.7380   -6.5798 H         1 <0>         0.0697
     62 H24         5.3721    4.5807   -2.7630 H         1 <0>         0.0843
     63 H25         6.9368   -0.8941    3.1782 H         1 <0>         0.0831
     64 H26         9.3395    3.2124   -5.9558 H         1 <0>         0.0704
     65 H27         8.2279    4.2735   -6.7972 H         1 <0>         0.0718
     66 H28         5.2579    4.9142    2.6804 H         1 <0>         0.0606
     67 H29         5.4809    5.7546    1.1500 H         1 <0>         0.0458
     68 H30         7.2000    6.0392    3.6534 H         1 <0>         0.0375
     69 H31         7.5258    6.8807    2.1417 H         1 <0>         0.0392
     70 H32         7.4599    3.7926    2.4354 H         1 <0>         0.0606
     71 H33         7.7645    4.6634    0.9347 H         1 <0>         0.0579
     72 H34         4.9986    7.1962    3.8630 H         1 <0>         0.0571
     73 H35         5.2784    8.0349    2.3297 H         1 <0>         0.0503
     74 H36         7.0421    2.3587    0.4881 H         1 <0>         0.0993
     75 H37         6.9507    0.5323   -5.3773 H         1 <0>         0.3700
     76 H38         8.6161    1.0420   -5.2343 H         1 <0>         0.3660
     77 H39         5.9996    9.3711    4.3277 H         1 <0>         0.3465
     78 H40         7.4997    8.7018    3.7315 H         1 <0>         0.3446
     79 H41         6.1146    0.2589    0.6111 H         1 <0>         0.3148
     80 H42         5.4441    4.5531   -0.5557 H         1 <0>         0.3220
@<TRIPOS>BOND
     1    1    2 ar
     2    1    3 ar
     3    2    4 ar
     4    3    5 ar
     5    4    6 ar
     6    5    6 ar
     7    6   23 1
     8    7   22 1
     9    7   29 am
    10    7   35 2
    11    8    9 1
    12    8   28 1
    13    8   36 2
    14    9   33 am
    15    9   37 2
    16   10   20 1
    17   10   34 am
    18   10   38 2
    19   11   12 1
    20   11   13 1
    21   12   14 1
    22   13   15 1
    23   14   21 1
    24   15   21 1
    25   16   18 1
    26   16   20 1
    27   17   19 1
    28   17   22 1
    29   18   30 1
    30   19   30 1
    31   20   29 1
    32   21   33 1
    33   22   23 1
    34   22   31 1
    35   24   25 1
    36   24   26 1
    37   25   27 1
    38   26   28 1
    39   27   32 1
    40   28   34 1
    41   29   30 1
    42    1   39 1
    43    2   40 1
    44    3   41 1
    45    4   42 1
    46    5   43 1
    47   11   44 1
    48   11   45 1
    49   12   46 1
    50   12   47 1
    51   13   48 1
    52   13   49 1
    53   14   50 1
    54   14   51 1
    55   15   52 1
    56   15   53 1
    57   16   54 1
    58   16   55 1
    59   17   56 1
    60   17   57 1
    61   18   58 1
    62   18   59 1
    63   19   60 1
    64   19   61 1
    65   20   62 1
    66   21   63 1
    67   23   64 1
    68   23   65 1
    69   24   66 1
    70   24   67 1
    71   25   68 1
    72   25   69 1
    73   26   70 1
    74   26   71 1
    75   27   72 1
    76   27   73 1
    77   28   74 1
    78   31   75 1
    79   31   76 1
    80   32   77 1
    81   32   78 1
    82   33   79 1
    83   34   80 1
@<TRIPOS>MOLECULE
1a46_ligand_66
   80    83     0     0     0
SMALL
USER_CHARGES

mmff94s_NoEstat = 82.40
@<TRIPOS>ATOM
      1 C1         11.1945    5.3647   -9.7731 C.ar      1 <0>        -0.1300
      2 C2         11.8337    5.1154   -8.5586 C.ar      1 <0>        -0.1323
      3 C3          9.8873    5.8513   -9.7863 C.ar      1 <0>        -0.1309
      4 C4         11.1656    5.3526   -7.3573 C.ar      1 <0>        -0.1275
      5 C5          9.2192    6.0884   -8.5850 C.ar      1 <0>        -0.1272
      6 C6          9.8628    5.8375   -7.3783 C.ar      1 <0>        -0.0843
      7 C7          7.6425    5.1042   -4.2977 C.2       1 <0>         0.6709
      8 C8          5.2358    2.3798    1.5634 C.2       1 <0>         0.4867
      9 C9          5.6457    1.7076    2.8411 C.2       1 <0>         0.5883
     10 C10         6.5256    3.6321   -1.6689 C.2       1 <0>         0.6572
     11 C11         9.7235   -1.0796    2.8207 C.3       1 <0>        -0.0802
     12 C12         8.4526   -1.6930    2.2388 C.3       1 <0>        -0.0765
     13 C13         9.4972    0.3517    3.3002 C.3       1 <0>        -0.0774
     14 C14         7.2832   -1.6014    3.2201 C.3       1 <0>        -0.0953
     15 C15         8.3255    0.4384    4.2793 C.3       1 <0>        -0.0906
     16 C16         4.6595    3.2577   -3.3009 C.3       1 <0>        -0.0871
     17 C17         7.3760    4.3986   -6.7074 C.3       1 <0>        -0.0716
     18 C18         5.3367    2.3027   -4.2819 C.3       1 <0>         0.1333
     19 C19         6.2012    3.5529   -6.1864 C.3       1 <0>         0.1246
     20 C20         5.7868    4.1659   -2.8575 C.3       1 <0>         0.0606
     21 C21         7.0342   -0.1713    3.7178 C.3       1 <0>         0.1012
     22 C22         8.3797    4.8486   -5.6198 C.3       1 <0>         0.1554
     23 C23         9.1441    6.0926   -6.0861 C.3       1 <0>        -0.0356
     24 C24         6.0158    5.3379    2.0114 C.3       1 <0>        -0.0795
     25 C25         6.7209    6.4716    2.7653 C.3       1 <0>        -0.1203
     26 C26         6.9719    4.2276    1.5544 C.3       1 <0>        -0.0920
     27 C27         7.4119    6.0077    4.0472 C.3       1 <0>         0.1502
     28 C28         6.2906    3.1130    0.7514 C.3       1 <0>         0.0224
     29 N1          6.7058    4.1331   -3.9791 N.am      1 <0>        -0.3553
     30 N2          6.4777    3.0462   -4.8435 N.3       1 <0>        -0.4320
     31 N3          9.3531    3.7833   -5.3380 N.3       1 <0>        -0.9031
     32 N4          8.0424    7.1400    4.7175 N.3       1 <0>        -0.9068
     33 N5          6.5118    0.6599    2.6310 N.am      1 <0>        -0.5526
     34 N6          5.7762    3.5917   -0.5046 N.am      1 <0>        -0.5576
     35 O1          7.8821    6.0807   -3.5877 O.2       1 <0>        -0.6710
     36 O2          4.0412    2.3628    1.2952 O.2       1 <0>        -0.4901
     37 O3          5.1730    2.1266    3.8850 O.2       1 <0>        -0.5902
     38 O4          7.6924    3.2783   -1.7917 O.2       1 <0>        -0.5833
     39 H1         11.7147    5.1800  -10.7084 H         1 <0>         0.1320
     40 H2         12.8515    4.7366   -8.5485 H         1 <0>         0.1324
     41 H3          9.3897    6.0452  -10.7320 H         1 <0>         0.1328
     42 H4         11.6716    5.1554   -6.4159 H         1 <0>         0.1324
     43 H5          8.2009    6.4675   -8.6050 H         1 <0>         0.1434
     44 H6         10.0697   -1.6931    3.6617 H         1 <0>         0.0405
     45 H7         10.5190   -1.0948    2.0671 H         1 <0>         0.0421
     46 H8          8.1939   -1.1805    1.3044 H         1 <0>         0.0362
     47 H9          8.6355   -2.7431    1.9836 H         1 <0>         0.0439
     48 H10        10.4072    0.7253    3.7834 H         1 <0>         0.0350
     49 H11         9.3078    1.0008    2.4368 H         1 <0>         0.0428
     50 H12         6.3793   -1.9968    2.7410 H         1 <0>         0.0663
     51 H13         7.4938   -2.2464    4.0826 H         1 <0>         0.0466
     52 H14         8.5960   -0.0894    5.2028 H         1 <0>         0.0493
     53 H15         8.1600    1.4882    4.5503 H         1 <0>         0.0520
     54 H16         3.9023    3.8458   -3.8340 H         1 <0>         0.0915
     55 H17         4.1709    2.7289   -2.4768 H         1 <0>         0.0601
     56 H18         7.9078    3.8408   -7.4902 H         1 <0>         0.0688
     57 H19         6.9559    5.2827   -7.2061 H         1 <0>         0.0630
     58 H20         5.7303    1.4383   -3.7336 H         1 <0>         0.0807
     59 H21         4.6390    1.9190   -5.0344 H         1 <0>         0.0380
     60 H22         5.2889    4.1652   -6.1941 H         1 <0>         0.0484
     61 H23         6.0298    2.7205   -6.8794 H         1 <0>         0.0697
     62 H24         5.4651    5.1881   -2.6391 H         1 <0>         0.0843
     63 H25         6.2589   -0.1767    4.4911 H         1 <0>         0.0831
     64 H26         9.8520    6.3858   -5.3087 H         1 <0>         0.0704
     65 H27         8.4405    6.9195   -6.1990 H         1 <0>         0.0718
     66 H28         5.2579    4.9142    2.6804 H         1 <0>         0.0606
     67 H29         5.4809    5.7546    1.1500 H         1 <0>         0.0458
     68 H30         7.4668    6.9122    2.0910 H         1 <0>         0.0375
     69 H31         5.9973    7.2642    2.9945 H         1 <0>         0.0392
     70 H32         7.4599    3.7926    2.4354 H         1 <0>         0.0606
     71 H33         7.7645    4.6634    0.9347 H         1 <0>         0.0579
     72 H34         8.1719    5.2532    3.8170 H         1 <0>         0.0571
     73 H35         6.6895    5.5581    4.7347 H         1 <0>         0.0503
     74 H36         7.0421    2.3587    0.4881 H         1 <0>         0.0993
     75 H37         9.0331    2.8434   -5.3754 H         1 <0>         0.3700
     76 H38        10.2196    4.0460   -4.9287 H         1 <0>         0.3660
     77 H39         8.6273    6.9547    5.5039 H         1 <0>         0.3465
     78 H40         7.7128    8.0567    4.5024 H         1 <0>         0.3446
     79 H41         6.8020    0.4535    1.6799 H         1 <0>         0.3148
     80 H42         4.8120    3.9176   -0.5391 H         1 <0>         0.3220
@<TRIPOS>BOND
     1    1    2 ar
     2    1    3 ar
     3    2    4 ar
     4    3    5 ar
     5    4    6 ar
     6    5    6 ar
     7    6   23 1
     8    7   22 1
     9    7   29 am
    10    7   35 2
    11    8    9 1
    12    8   28 1
    13    8   36 2
    14    9   33 am
    15    9   37 2
    16   10   20 1
    17   10   34 am
    18   10   38 2
    19   11   12 1
    20   11   13 1
    21   12   14 1
    22   13   15 1
    23   14   21 1
    24   15   21 1
    25   16   18 1
    26   16   20 1
    27   17   19 1
    28   17   22 1
    29   18   30 1
    30   19   30 1
    31   20   29 1
    32   21   33 1
    33   22   23 1
    34   22   31 1
    35   24   25 1
    36   24   26 1
    37   25   27 1
    38   26   28 1
    39   27   32 1
    40   28   34 1
    41   29   30 1
    42    1   39 1
    43    2   40 1
    44    3   41 1
    45    4   42 1
    46    5   43 1
    47   11   44 1
    48   11   45 1
    49   12   46 1
    50   12   47 1
    51   13   48 1
    52   13   49 1
    53   14   50 1
    54   14   51 1
    55   15   52 1
    56   15   53 1
    57   16   54 1
    58   16   55 1
    59   17   56 1
    60   17   57 1
    61   18   58 1
    62   18   59 1
    63   19   60 1
    64   19   61 1
    65   20   62 1
    66   21   63 1
    67   23   64 1
    68   23   65 1
    69   24   66 1
    70   24   67 1
    71   25   68 1
    72   25   69 1
    73   26   70 1
    74   26   71 1
    75   27   72 1
    76   27   73 1
    77   28   74 1
    78   31   75 1
    79   31   76 1
    80   32   77 1
    81   32   78 1
    82   33   79 1
    83   34   80 1
@<TRIPOS>MOLECULE
1a46_ligand_67
   80    83     0     0     0
SMALL
USER_CHARGES

mmff94s_NoEstat = 82.40
@<TRIPOS>ATOM
      1 C1         11.2165    5.1344   -9.5699 C.ar      1 <0>        -0.1300
      2 C2         11.8039    4.7828   -8.3546 C.ar      1 <0>        -0.1323
      3 C3          9.9328    5.6797   -9.5922 C.ar      1 <0>        -0.1309
      4 C4         11.1077    4.9765   -7.1616 C.ar      1 <0>        -0.1275
      5 C5          9.2366    5.8734   -8.3991 C.ar      1 <0>        -0.1272
      6 C6          9.8285    5.5206   -7.1916 C.ar      1 <0>        -0.0843
      7 C7          7.4784    4.7027   -4.2310 C.2       1 <0>         0.6709
      8 C8          5.2358    2.3798    1.5634 C.2       1 <0>         0.4867
      9 C9          5.6522    1.1980    2.3894 C.2       1 <0>         0.5883
     10 C10         6.2126    3.1256   -1.7338 C.2       1 <0>         0.6572
     11 C11         8.5733   -2.2013    0.3137 C.3       1 <0>        -0.0802
     12 C12         7.0878   -2.2472   -0.0344 C.3       1 <0>        -0.0765
     13 C13         8.9012   -1.0498    1.2605 C.3       1 <0>        -0.0774
     14 C14         6.2162   -2.2794    1.2217 C.3       1 <0>        -0.0953
     15 C15         8.0255   -1.0852    2.5138 C.3       1 <0>        -0.0906
     16 C16         4.3868    2.9365   -3.4414 C.3       1 <0>        -0.0871
     17 C17         7.2608    4.1580   -6.6868 C.3       1 <0>        -0.0716
     18 C18         5.0537    2.0131   -4.4592 C.3       1 <0>         0.1333
     19 C19         6.0339    3.3363   -6.2552 C.3       1 <0>         0.1246
     20 C20         5.5372    3.7637   -2.9085 C.3       1 <0>         0.0606
     21 C21         6.5260   -1.1310    2.1912 C.3       1 <0>         0.1012
     22 C22         8.2469    4.4948   -5.5436 C.3       1 <0>         0.1554
     23 C23         9.0796    5.7289   -5.9083 C.3       1 <0>        -0.0356
     24 C24         8.0800    4.9598    0.7851 C.3       1 <0>        -0.0795
     25 C25         8.7880    6.0338    1.6192 C.3       1 <0>        -0.1203
     26 C26         6.9719    4.2276    1.5544 C.3       1 <0>        -0.0920
     27 C27         9.9095    6.7454    0.8629 C.3       1 <0>         0.1502
     28 C28         6.2906    3.1130    0.7514 C.3       1 <0>         0.0224
     29 N1          6.4904    3.7576   -4.0019 N.am      1 <0>        -0.3553
     30 N2          6.2438    2.7368   -4.9387 N.3       1 <0>        -0.4320
     31 N3          9.1632    3.3713   -5.2994 N.3       1 <0>        -0.9031
     32 N4         10.5470    7.7366    1.7233 N.3       1 <0>        -0.9068
     33 N5          6.0911    0.1457    1.6201 N.am      1 <0>        -0.5526
     34 N6          5.7762    3.5917   -0.5046 N.am      1 <0>        -0.5576
     35 O1          7.7368    5.6223   -3.4546 O.2       1 <0>        -0.6710
     36 O2          4.0675    2.7325    1.6631 O.2       1 <0>        -0.4901
     37 O3          5.5431    1.2807    3.6019 O.2       1 <0>        -0.5902
     38 O4          7.0689    2.2691   -1.9210 O.2       1 <0>        -0.5833
     39 H1         11.7586    4.9835  -10.4989 H         1 <0>         0.1320
     40 H2         12.8034    4.3582   -8.3374 H         1 <0>         0.1324
     41 H3          9.4755    5.9533  -10.5385 H         1 <0>         0.1328
     42 H4         11.5733    4.6996   -6.2195 H         1 <0>         0.1324
     43 H5          8.2369    6.2989   -8.4262 H         1 <0>         0.1434
     44 H6          8.8652   -3.1496    0.7818 H         1 <0>         0.0405
     45 H7          9.1645   -2.1042   -0.6039 H         1 <0>         0.0421
     46 H8          6.8280   -1.3732   -0.6439 H         1 <0>         0.0362
     47 H9          6.8815   -3.1326   -0.6466 H         1 <0>         0.0439
     48 H10         9.9572   -1.1013    1.5494 H         1 <0>         0.0350
     49 H11         8.7621   -0.0959    0.7377 H         1 <0>         0.0428
     50 H12         5.1599   -2.2505    0.9279 H         1 <0>         0.0663
     51 H13         6.3761   -3.2341    1.7388 H         1 <0>         0.0466
     52 H14         8.2894   -1.9712    3.1052 H         1 <0>         0.0493
     53 H15         8.2509   -0.2099    3.1351 H         1 <0>         0.0520
     54 H16         3.6738    3.5897   -3.9595 H         1 <0>         0.0915
     55 H17         3.8488    2.3812   -2.6670 H         1 <0>         0.0601
     56 H18         7.7933    3.6252   -7.4865 H         1 <0>         0.0688
     57 H19         6.8963    5.0889   -7.1420 H         1 <0>         0.0630
     58 H20         5.3910    1.1000   -3.9542 H         1 <0>         0.0807
     59 H21         4.3651    1.7081   -5.2548 H         1 <0>         0.0380
     60 H22         5.1498    3.9888   -6.2523 H         1 <0>         0.0484
     61 H23         5.8493    2.5563   -7.0035 H         1 <0>         0.0697
     62 H24         5.2534    4.7844   -2.6367 H         1 <0>         0.0843
     63 H25         5.9510   -1.2586    3.1143 H         1 <0>         0.0831
     64 H26         9.7736    5.9418   -5.0932 H         1 <0>         0.0704
     65 H27         8.4167    6.5923   -5.9906 H         1 <0>         0.0718
     66 H28         7.6494    5.4516   -0.0948 H         1 <0>         0.0606
     67 H29         8.8216    4.2418    0.4157 H         1 <0>         0.0458
     68 H30         8.0356    6.7709    1.9287 H         1 <0>         0.0375
     69 H31         9.1825    5.5824    2.5383 H         1 <0>         0.0392
     70 H32         6.2171    4.9575    1.8728 H         1 <0>         0.0606
     71 H33         7.3929    3.7874    2.4660 H         1 <0>         0.0579
     72 H34         9.5108    7.2416   -0.0285 H         1 <0>         0.0571
     73 H35        10.6706    6.0303    0.5375 H         1 <0>         0.0503
     74 H36         7.0421    2.3587    0.4881 H         1 <0>         0.0993
     75 H37         8.8040    2.4509   -5.4050 H         1 <0>         0.3700
     76 H38        10.0264    3.5689   -4.8487 H         1 <0>         0.3660
     77 H39        11.2163    8.3531    1.3147 H         1 <0>         0.3465
     78 H40        10.4498    7.6340    2.7108 H         1 <0>         0.3446
     79 H41         6.1146    0.2589    0.6111 H         1 <0>         0.3148
     80 H42         5.0545    4.3100   -0.4888 H         1 <0>         0.3220
@<TRIPOS>BOND
     1    1    2 ar
     2    1    3 ar
     3    2    4 ar
     4    3    5 ar
     5    4    6 ar
     6    5    6 ar
     7    6   23 1
     8    7   22 1
     9    7   29 am
    10    7   35 2
    11    8    9 1
    12    8   28 1
    13    8   36 2
    14    9   33 am
    15    9   37 2
    16   10   20 1
    17   10   34 am
    18   10   38 2
    19   11   12 1
    20   11   13 1
    21   12   14 1
    22   13   15 1
    23   14   21 1
    24   15   21 1
    25   16   18 1
    26   16   20 1
    27   17   19 1
    28   17   22 1
    29   18   30 1
    30   19   30 1
    31   20   29 1
    32   21   33 1
    33   22   23 1
    34   22   31 1
    35   24   25 1
    36   24   26 1
    37   25   27 1
    38   26   28 1
    39   27   32 1
    40   28   34 1
    41   29   30 1
    42    1   39 1
    43    2   40 1
    44    3   41 1
    45    4   42 1
    46    5   43 1
    47   11   44 1
    48   11   45 1
    49   12   46 1
    50   12   47 1
    51   13   48 1
    52   13   49 1
    53   14   50 1
    54   14   51 1
    55   15   52 1
    56   15   53 1
    57   16   54 1
    58   16   55 1
    59   17   56 1
    60   17   57 1
    61   18   58 1
    62   18   59 1
    63   19   60 1
    64   19   61 1
    65   20   62 1
    66   21   63 1
    67   23   64 1
    68   23   65 1
    69   24   66 1
    70   24   67 1
    71   25   68 1
    72   25   69 1
    73   26   70 1
    74   26   71 1
    75   27   72 1
    76   27   73 1
    77   28   74 1
    78   31   75 1
    79   31   76 1
    80   32   77 1
    81   32   78 1
    82   33   79 1
    83   34   80 1
@<TRIPOS>MOLECULE
1a46_ligand_68
   80    83     0     0     0
SMALL
USER_CHARGES

mmff94s_NoEstat = 82.40
@<TRIPOS>ATOM
      1 C1         -6.3098    5.0766  -14.7059 C.ar      1 <0>        -0.1300
      2 C2         -4.9866    5.5178  -14.7011 C.ar      1 <0>        -0.1323
      3 C3         -6.8931    4.6085  -13.5284 C.ar      1 <0>        -0.1309
      4 C4         -4.2467    5.4909  -13.5190 C.ar      1 <0>        -0.1275
      5 C5         -6.1532    4.5816  -12.3463 C.ar      1 <0>        -0.1272
      6 C6         -4.8348    5.0229  -12.3493 C.ar      1 <0>        -0.0843
      7 C7         -2.4853    3.6254   -9.6135 C.2       1 <0>         0.6709
      8 C8          2.7796    3.2097   -6.1637 C.2       1 <0>         0.4867
      9 C9          2.2829    2.0299   -5.3801 C.2       1 <0>         0.5883
     10 C10         0.1051    2.2921   -8.2580 C.2       1 <0>         0.6572
     11 C11        -0.0952    0.7327   -0.7029 C.3       1 <0>        -0.0802
     12 C12         1.2544    0.2267   -1.2045 C.3       1 <0>        -0.0765
     13 C13        -1.0596    1.0010   -1.8548 C.3       1 <0>        -0.0774
     14 C14         1.8632    1.1742   -2.2367 C.3       1 <0>        -0.0953
     15 C15        -0.4535    1.9500   -2.8873 C.3       1 <0>        -0.0906
     16 C16        -1.6364    0.5270   -7.8871 C.3       1 <0>        -0.0871
     17 C17        -4.3081    2.4860  -10.9382 C.3       1 <0>        -0.0716
     18 C18        -1.8694    0.0615   -9.3231 C.3       1 <0>         0.1333
     19 C19        -3.8118    1.2004  -10.2545 C.3       1 <0>         0.1246
     20 C20        -1.3485    2.0056   -8.0379 C.3       1 <0>         0.0606
     21 C21         0.8958    1.4320   -3.3972 C.3       1 <0>         0.1012
     22 C22        -3.3015    3.6603  -10.9133 C.3       1 <0>         0.1554
     23 C23        -4.0388    4.9940  -11.0778 C.3       1 <0>        -0.0356
     24 C24         1.4445    5.5921   -8.9731 C.3       1 <0>        -0.0795
     25 C25         1.6370    7.0835   -9.2718 C.3       1 <0>        -0.1203
     26 C26         2.1570    5.1335   -7.6933 C.3       1 <0>        -0.0920
     27 C27         0.9502    7.5360  -10.5601 C.3       1 <0>         0.1502
     28 C28         2.0196    3.6328   -7.4097 C.3       1 <0>         0.0224
     29 N1         -2.0417    2.3600   -9.2617 N.am      1 <0>        -0.3553
     30 N2         -2.3647    1.2416  -10.0526 N.3       1 <0>        -0.4320
     31 N3         -2.3251    3.5312  -12.0049 N.3       1 <0>        -0.9031
     32 N4          1.1922    8.9569  -10.7874 N.3       1 <0>        -0.9068
     33 N5          1.4800    2.3978   -4.3257 N.am      1 <0>        -0.5526
     34 N6          0.6426    3.2153   -7.3763 N.am      1 <0>        -0.5576
     35 O1         -2.2426    4.6401   -8.9604 O.2       1 <0>        -0.6710
     36 O2          3.8302    3.7133   -5.7870 O.2       1 <0>        -0.4901
     37 O3          2.6437    0.9181   -5.7301 O.2       1 <0>        -0.5902
     38 O4          0.7038    1.7190   -9.1607 O.2       1 <0>        -0.5833
     39 H1         -6.8859    5.0974  -15.6263 H         1 <0>         0.1320
     40 H2         -4.5325    5.8822  -15.6180 H         1 <0>         0.1324
     41 H3         -7.9234    4.2648  -13.5323 H         1 <0>         0.1328
     42 H4         -3.2164    5.8366  -13.5249 H         1 <0>         0.1324
     43 H5         -6.6159    4.2152  -11.4338 H         1 <0>         0.1434
     44 H6         -0.5335   -0.0026   -0.0187 H         1 <0>         0.0405
     45 H7          0.0526    1.6558   -0.1291 H         1 <0>         0.0421
     46 H8          1.9422    0.1116   -0.3592 H         1 <0>         0.0362
     47 H9          1.1287   -0.7669   -1.6521 H         1 <0>         0.0439
     48 H10        -1.3217    0.0532   -2.3408 H         1 <0>         0.0350
     49 H11        -1.9903    1.4277   -1.4641 H         1 <0>         0.0428
     50 H12         2.1267    2.1226   -1.7501 H         1 <0>         0.0663
     51 H13         2.8005    0.7504   -2.6175 H         1 <0>         0.0466
     52 H14        -1.1488    2.0728   -3.7266 H         1 <0>         0.0493
     53 H15        -0.3286    2.9446   -2.4393 H         1 <0>         0.0520
     54 H16        -2.5585    0.3895   -7.3089 H         1 <0>         0.0915
     55 H17        -0.8326   -0.0295   -7.3954 H         1 <0>         0.0601
     56 H18        -4.5863    2.2623  -11.9771 H         1 <0>         0.0688
     57 H19        -5.2388    2.7911  -10.4408 H         1 <0>         0.0630
     58 H20        -0.9122   -0.2366   -9.7676 H         1 <0>         0.0807
     59 H21        -2.5349   -0.8073   -9.3737 H         1 <0>         0.0380
     60 H22        -4.3377    1.0786   -9.2974 H         1 <0>         0.0484
     61 H23        -4.0848    0.3402  -10.8776 H         1 <0>         0.0697
     62 H24        -1.7000    2.6081   -7.1954 H         1 <0>         0.0843
     63 H25         0.7468    0.5082   -3.9681 H         1 <0>         0.0831
     64 H26        -3.3094    5.8060  -11.0670 H         1 <0>         0.0704
     65 H27        -4.6920    5.1466  -10.2166 H         1 <0>         0.0718
     66 H28         0.3683    5.4079   -8.8774 H         1 <0>         0.0606
     67 H29         1.7918    5.0040   -9.8306 H         1 <0>         0.0458
     68 H30         1.2300    7.6523   -8.4256 H         1 <0>         0.0375
     69 H31         2.7093    7.3123   -9.3176 H         1 <0>         0.0392
     70 H32         1.7604    5.7005   -6.8419 H         1 <0>         0.0606
     71 H33         3.2243    5.3739   -7.7660 H         1 <0>         0.0579
     72 H34        -0.1287    7.3572  -10.4981 H         1 <0>         0.0571
     73 H35         1.3345    6.9786  -11.4193 H         1 <0>         0.0503
     74 H36         2.4714    3.0747   -8.2388 H         1 <0>         0.0993
     75 H37        -2.0308    2.6159  -12.2556 H         1 <0>         0.3700
     76 H38        -1.8535    4.3538  -12.3024 H         1 <0>         0.3660
     77 H39         0.7014    9.4044  -11.5317 H         1 <0>         0.3465
     78 H40         1.9755    9.3785  -10.3359 H         1 <0>         0.3446
     79 H41         1.2844    3.3846   -4.1861 H         1 <0>         0.3148
     80 H42         0.0323    3.6193   -6.6682 H         1 <0>         0.3220
@<TRIPOS>BOND
     1    1    2 ar
     2    1    3 ar
     3    2    4 ar
     4    3    5 ar
     5    4    6 ar
     6    5    6 ar
     7    6   23 1
     8    7   22 1
     9    7   29 am
    10    7   35 2
    11    8    9 1
    12    8   28 1
    13    8   36 2
    14    9   33 am
    15    9   37 2
    16   10   20 1
    17   10   34 am
    18   10   38 2
    19   11   12 1
    20   11   13 1
    21   12   14 1
    22   13   15 1
    23   14   21 1
    24   15   21 1
    25   16   18 1
    26   16   20 1
    27   17   19 1
    28   17   22 1
    29   18   30 1
    30   19   30 1
    31   20   29 1
    32   21   33 1
    33   22   23 1
    34   22   31 1
    35   24   25 1
    36   24   26 1
    37   25   27 1
    38   26   28 1
    39   27   32 1
    40   28   34 1
    41   29   30 1
    42    1   39 1
    43    2   40 1
    44    3   41 1
    45    4   42 1
    46    5   43 1
    47   11   44 1
    48   11   45 1
    49   12   46 1
    50   12   47 1
    51   13   48 1
    52   13   49 1
    53   14   50 1
    54   14   51 1
    55   15   52 1
    56   15   53 1
    57   16   54 1
    58   16   55 1
    59   17   56 1
    60   17   57 1
    61   18   58 1
    62   18   59 1
    63   19   60 1
    64   19   61 1
    65   20   62 1
    66   21   63 1
    67   23   64 1
    68   23   65 1
    69   24   66 1
    70   24   67 1
    71   25   68 1
    72   25   69 1
    73   26   70 1
    74   26   71 1
    75   27   72 1
    76   27   73 1
    77   28   74 1
    78   31   75 1
    79   31   76 1
    80   32   77 1
    81   32   78 1
    82   33   79 1
    83   34   80 1
@<TRIPOS>MOLECULE
1a46_ligand_69
   80    83     0     0     0
SMALL
USER_CHARGES

mmff94s_NoEstat = 82.42
@<TRIPOS>ATOM
      1 C1         11.1945    5.3647   -9.7731 C.ar      1 <0>        -0.1300
      2 C2         11.8337    5.1154   -8.5586 C.ar      1 <0>        -0.1323
      3 C3          9.8873    5.8513   -9.7863 C.ar      1 <0>        -0.1309
      4 C4         11.1656    5.3526   -7.3573 C.ar      1 <0>        -0.1275
      5 C5          9.2192    6.0884   -8.5850 C.ar      1 <0>        -0.1272
      6 C6          9.8628    5.8375   -7.3783 C.ar      1 <0>        -0.0843
      7 C7          7.6425    5.1042   -4.2977 C.2       1 <0>         0.6709
      8 C8          5.2358    2.3798    1.5634 C.2       1 <0>         0.4867
      9 C9          5.6522    1.1980    2.3894 C.2       1 <0>         0.5883
     10 C10         6.5256    3.6321   -1.6689 C.2       1 <0>         0.6572
     11 C11         6.6816    1.9893    7.1551 C.3       1 <0>        -0.0802
     12 C12         7.6016    1.8792    5.9420 C.3       1 <0>        -0.0765
     13 C13         5.2114    1.8483    6.7697 C.3       1 <0>        -0.0774
     14 C14         7.3421    0.5947    5.1537 C.3       1 <0>        -0.0953
     15 C15         4.9576    0.5637    5.9796 C.3       1 <0>        -0.0906
     16 C16         4.6595    3.2577   -3.3009 C.3       1 <0>        -0.0871
     17 C17         7.3760    4.3986   -6.7074 C.3       1 <0>        -0.0716
     18 C18         5.3367    2.3027   -4.2819 C.3       1 <0>         0.1333
     19 C19         6.2012    3.5529   -6.1864 C.3       1 <0>         0.1246
     20 C20         5.7868    4.1659   -2.8575 C.3       1 <0>         0.0606
     21 C21         5.8700    0.4288    4.7533 C.3       1 <0>         0.1012
     22 C22         8.3797    4.8486   -5.6198 C.3       1 <0>         0.1554
     23 C23         9.1441    6.0926   -6.0861 C.3       1 <0>        -0.0356
     24 C24         6.0158    5.3379    2.0114 C.3       1 <0>        -0.0795
     25 C25         6.7209    6.4716    2.7653 C.3       1 <0>        -0.1203
     26 C26         6.9719    4.2276    1.5544 C.3       1 <0>        -0.0920
     27 C27         5.7742    7.5909    3.1979 C.3       1 <0>         0.1502
     28 C28         6.2906    3.1130    0.7514 C.3       1 <0>         0.0224
     29 N1          6.7058    4.1331   -3.9791 N.am      1 <0>        -0.3553
     30 N2          6.4777    3.0462   -4.8435 N.3       1 <0>        -0.4320
     31 N3          9.3531    3.7833   -5.3380 N.3       1 <0>        -0.9031
     32 N4          6.5168    8.6391    3.8900 N.3       1 <0>        -0.9068
     33 N5          5.5058    1.4204    3.7389 N.am      1 <0>        -0.5526
     34 N6          5.7762    3.5917   -0.5046 N.am      1 <0>        -0.5576
     35 O1          7.8821    6.0807   -3.5877 O.2       1 <0>        -0.6710
     36 O2          4.0675    2.7325    1.6631 O.2       1 <0>        -0.4901
     37 O3          6.0787    0.2146    1.8066 O.2       1 <0>        -0.5902
     38 O4          7.6924    3.2783   -1.7917 O.2       1 <0>        -0.5833
     39 H1         11.7147    5.1800  -10.7084 H         1 <0>         0.1320
     40 H2         12.8515    4.7366   -8.5485 H         1 <0>         0.1324
     41 H3          9.3897    6.0452  -10.7320 H         1 <0>         0.1328
     42 H4         11.6716    5.1554   -6.4159 H         1 <0>         0.1324
     43 H5          8.2009    6.4675   -8.6050 H         1 <0>         0.1434
     44 H6          6.9427    1.2082    7.8799 H         1 <0>         0.0405
     45 H7          6.8417    2.9520    7.6534 H         1 <0>         0.0421
     46 H8          7.4546    2.7498    5.2915 H         1 <0>         0.0362
     47 H9          8.6469    1.9026    6.2708 H         1 <0>         0.0439
     48 H10         4.5928    1.8508    7.6743 H         1 <0>         0.0350
     49 H11         4.9049    2.7167    6.1741 H         1 <0>         0.0428
     50 H12         7.9792    0.5852    4.2610 H         1 <0>         0.0663
     51 H13         7.6426   -0.2639    5.7676 H         1 <0>         0.0466
     52 H14         5.1209   -0.2968    6.6410 H         1 <0>         0.0493
     53 H15         3.9054    0.5325    5.6719 H         1 <0>         0.0520
     54 H16         3.9023    3.8458   -3.8340 H         1 <0>         0.0915
     55 H17         4.1709    2.7289   -2.4768 H         1 <0>         0.0601
     56 H18         7.9078    3.8408   -7.4902 H         1 <0>         0.0688
     57 H19         6.9559    5.2827   -7.2061 H         1 <0>         0.0630
     58 H20         5.7303    1.4383   -3.7336 H         1 <0>         0.0807
     59 H21         4.6390    1.9190   -5.0344 H         1 <0>         0.0380
     60 H22         5.2889    4.1652   -6.1941 H         1 <0>         0.0484
     61 H23         6.0298    2.7205   -6.8794 H         1 <0>         0.0697
     62 H24         5.4651    5.1881   -2.6391 H         1 <0>         0.0843
     63 H25         5.7204   -0.5494    4.2845 H         1 <0>         0.0831
     64 H26         9.8520    6.3858   -5.3087 H         1 <0>         0.0704
     65 H27         8.4405    6.9195   -6.1990 H         1 <0>         0.0718
     66 H28         5.2579    4.9142    2.6804 H         1 <0>         0.0606
     67 H29         5.4809    5.7546    1.1500 H         1 <0>         0.0458
     68 H30         7.2000    6.0392    3.6534 H         1 <0>         0.0375
     69 H31         7.5258    6.8807    2.1417 H         1 <0>         0.0392
     70 H32         7.4599    3.7926    2.4354 H         1 <0>         0.0606
     71 H33         7.7645    4.6634    0.9347 H         1 <0>         0.0579
     72 H34         4.9986    7.1962    3.8630 H         1 <0>         0.0571
     73 H35         5.2784    8.0349    2.3297 H         1 <0>         0.0503
     74 H36         7.0421    2.3587    0.4881 H         1 <0>         0.0993
     75 H37         9.0331    2.8434   -5.3754 H         1 <0>         0.3700
     76 H38        10.2196    4.0460   -4.9287 H         1 <0>         0.3660
     77 H39         5.9996    9.3711    4.3277 H         1 <0>         0.3465
     78 H40         7.4997    8.7018    3.7315 H         1 <0>         0.3446
     79 H41         5.1282    2.3120    4.0455 H         1 <0>         0.3148
     80 H42         4.8120    3.9176   -0.5391 H         1 <0>         0.3220
@<TRIPOS>BOND
     1    1    2 ar
     2    1    3 ar
     3    2    4 ar
     4    3    5 ar
     5    4    6 ar
     6    5    6 ar
     7    6   23 1
     8    7   22 1
     9    7   29 am
    10    7   35 2
    11    8    9 1
    12    8   28 1
    13    8   36 2
    14    9   33 am
    15    9   37 2
    16   10   20 1
    17   10   34 am
    18   10   38 2
    19   11   12 1
    20   11   13 1
    21   12   14 1
    22   13   15 1
    23   14   21 1
    24   15   21 1
    25   16   18 1
    26   16   20 1
    27   17   19 1
    28   17   22 1
    29   18   30 1
    30   19   30 1
    31   20   29 1
    32   21   33 1
    33   22   23 1
    34   22   31 1
    35   24   25 1
    36   24   26 1
    37   25   27 1
    38   26   28 1
    39   27   32 1
    40   28   34 1
    41   29   30 1
    42    1   39 1
    43    2   40 1
    44    3   41 1
    45    4   42 1
    46    5   43 1
    47   11   44 1
    48   11   45 1
    49   12   46 1
    50   12   47 1
    51   13   48 1
    52   13   49 1
    53   14   50 1
    54   14   51 1
    55   15   52 1
    56   15   53 1
    57   16   54 1
    58   16   55 1
    59   17   56 1
    60   17   57 1
    61   18   58 1
    62   18   59 1
    63   19   60 1
    64   19   61 1
    65   20   62 1
    66   21   63 1
    67   23   64 1
    68   23   65 1
    69   24   66 1
    70   24   67 1
    71   25   68 1
    72   25   69 1
    73   26   70 1
    74   26   71 1
    75   27   72 1
    76   27   73 1
    77   28   74 1
    78   31   75 1
    79   31   76 1
    80   32   77 1
    81   32   78 1
    82   33   79 1
    83   34   80 1
@<TRIPOS>MOLECULE
1a46_ligand_70
   80    83     0     0     0
SMALL
USER_CHARGES

mmff94s_NoEstat = 82.46
@<TRIPOS>ATOM
      1 C1         -3.7305   -5.9204  -11.3537 C.ar      1 <0>        -0.1300
      2 C2         -2.4262   -5.5183  -11.6410 C.ar      1 <0>        -0.1323
      3 C3         -4.6750   -4.9808  -10.9404 C.ar      1 <0>        -0.1309
      4 C4         -2.0662   -4.1766  -11.5149 C.ar      1 <0>        -0.1275
      5 C5         -4.3150   -3.6391  -10.8142 C.ar      1 <0>        -0.1272
      6 C6         -3.0129   -3.2458  -11.1023 C.ar      1 <0>        -0.0843
      7 C7         -1.7147   -0.0189   -9.4111 C.2       1 <0>         0.6709
      8 C8          2.7796    3.2097   -6.1637 C.2       1 <0>         0.4867
      9 C9          2.0233    2.5606   -5.0416 C.2       1 <0>         0.5883
     10 C10         0.2181    1.9581   -7.7739 C.2       1 <0>         0.6572
     11 C11         1.9645   -1.8404   -1.9043 C.3       1 <0>        -0.0802
     12 C12         1.2252   -1.9940   -3.2304 C.3       1 <0>        -0.0765
     13 C13         1.9764   -0.3897   -1.4308 C.3       1 <0>        -0.0774
     14 C14         1.7870   -1.0593   -4.3004 C.3       1 <0>        -0.0953
     15 C15         2.5397    0.5467   -2.4984 C.3       1 <0>        -0.0906
     16 C16        -1.7326    1.7367   -6.2145 C.3       1 <0>        -0.0871
     17 C17        -3.1871   -1.8587   -8.5042 C.3       1 <0>        -0.0716
     18 C18        -1.5889    0.2745   -5.7969 C.3       1 <0>         0.1333
     19 C19        -3.0480   -1.1203   -7.1617 C.3       1 <0>         0.1246
     20 C20        -1.2590    1.7411   -7.6524 C.3       1 <0>         0.0606
     21 C21         1.7865    0.3978   -3.8249 C.3       1 <0>         0.1012
     22 C22        -2.1125   -1.4947   -9.5555 C.3       1 <0>         0.1554
     23 C23        -2.6257   -1.8026  -10.9666 C.3       1 <0>        -0.0356
     24 C24         1.4445    5.5921   -8.9731 C.3       1 <0>        -0.0795
     25 C25         1.6370    7.0835   -9.2718 C.3       1 <0>        -0.1203
     26 C26         2.1570    5.1335   -7.6933 C.3       1 <0>        -0.0920
     27 C27         0.9502    7.5360  -10.5601 C.3       1 <0>         0.1502
     28 C28         2.0196    3.6328   -7.4097 C.3       1 <0>         0.0224
     29 N1         -1.5278    0.3875   -8.0990 N.am      1 <0>        -0.3553
     30 N2         -1.7250   -0.5121   -7.0349 N.3       1 <0>        -0.4320
     31 N3         -0.8818   -2.2667   -9.3297 N.3       1 <0>        -0.9031
     32 N4          1.1922    8.9569  -10.7874 N.3       1 <0>        -0.9068
     33 N5          2.3972    1.2522   -4.8415 N.am      1 <0>        -0.5526
     34 N6          0.6426    3.2153   -7.3763 N.am      1 <0>        -0.5576
     35 O1         -1.5651    0.7213  -10.3831 O.2       1 <0>        -0.6710
     36 O2          3.9949    3.2835   -6.0334 O.2       1 <0>        -0.4901
     37 O3          1.1778    3.2234   -4.4630 O.2       1 <0>        -0.5902
     38 O4          0.9290    1.0536   -8.1959 O.2       1 <0>        -0.5833
     39 H1         -4.0108   -6.9651  -11.4519 H         1 <0>         0.1320
     40 H2         -1.6909   -6.2500  -11.9629 H         1 <0>         0.1324
     41 H3         -5.6906   -5.2940  -10.7166 H         1 <0>         0.1328
     42 H4         -1.0476   -3.8726  -11.7408 H         1 <0>         0.1324
     43 H5         -5.0575   -2.9141  -10.4915 H         1 <0>         0.1434
     44 H6          1.4927   -2.4726   -1.1437 H         1 <0>         0.0405
     45 H7          2.9964   -2.1943   -2.0196 H         1 <0>         0.0421
     46 H8          1.2964   -3.0321   -3.5740 H         1 <0>         0.0362
     47 H9          0.1599   -1.7786   -3.0820 H         1 <0>         0.0439
     48 H10         0.9554   -0.0796   -1.1762 H         1 <0>         0.0350
     49 H11         2.5731   -0.3059   -0.5155 H         1 <0>         0.0428
     50 H12         2.8086   -1.3703   -4.5560 H         1 <0>         0.0663
     51 H13         1.1952   -1.1537   -5.2190 H         1 <0>         0.0466
     52 H14         2.4782    1.5839   -2.1473 H         1 <0>         0.0493
     53 H15         3.6062    0.3314   -2.6462 H         1 <0>         0.0520
     54 H16        -2.7915    2.0208   -6.1758 H         1 <0>         0.0915
     55 H17        -1.1685    2.4118   -5.5637 H         1 <0>         0.0601
     56 H18        -3.1756   -2.9428   -8.3269 H         1 <0>         0.0688
     57 H19        -4.1842   -1.6345   -8.9071 H         1 <0>         0.0630
     58 H20        -0.5812    0.1087   -5.3971 H         1 <0>         0.0807
     59 H21        -2.2993   -0.0031   -5.0104 H         1 <0>         0.0380
     60 H22        -3.8377   -0.3598   -7.0886 H         1 <0>         0.0484
     61 H23        -3.2188   -1.8335   -6.3463 H         1 <0>         0.0697
     62 H24        -1.7729    2.4744   -8.2803 H         1 <0>         0.0843
     63 H25         0.7550    0.7494   -3.7073 H         1 <0>         0.0831
     64 H26        -1.8489   -1.5475  -11.6898 H         1 <0>         0.0704
     65 H27        -3.4798   -1.1578  -11.1818 H         1 <0>         0.0718
     66 H28         0.3683    5.4079   -8.8774 H         1 <0>         0.0606
     67 H29         1.7918    5.0040   -9.8306 H         1 <0>         0.0458
     68 H30         1.2300    7.6523   -8.4256 H         1 <0>         0.0375
     69 H31         2.7093    7.3123   -9.3176 H         1 <0>         0.0392
     70 H32         1.7604    5.7005   -6.8419 H         1 <0>         0.0606
     71 H33         3.2243    5.3739   -7.7660 H         1 <0>         0.0579
     72 H34        -0.1287    7.3572  -10.4981 H         1 <0>         0.0571
     73 H35         1.3345    6.9786  -11.4193 H         1 <0>         0.0503
     74 H36         2.4714    3.0747   -8.2388 H         1 <0>         0.0993
     75 H37        -0.6260   -2.4640   -8.3900 H         1 <0>         0.3700
     76 H38        -0.2603   -2.3800  -10.0968 H         1 <0>         0.3660
     77 H39         0.7014    9.4044  -11.5317 H         1 <0>         0.3465
     78 H40         1.9755    9.3785  -10.3359 H         1 <0>         0.3446
     79 H41         3.1304    0.8623   -5.4263 H         1 <0>         0.3148
     80 H42        -0.0552    3.8781   -7.0434 H         1 <0>         0.3220
@<TRIPOS>BOND
     1    1    2 ar
     2    1    3 ar
     3    2    4 ar
     4    3    5 ar
     5    4    6 ar
     6    5    6 ar
     7    6   23 1
     8    7   22 1
     9    7   29 am
    10    7   35 2
    11    8    9 1
    12    8   28 1
    13    8   36 2
    14    9   33 am
    15    9   37 2
    16   10   20 1
    17   10   34 am
    18   10   38 2
    19   11   12 1
    20   11   13 1
    21   12   14 1
    22   13   15 1
    23   14   21 1
    24   15   21 1
    25   16   18 1
    26   16   20 1
    27   17   19 1
    28   17   22 1
    29   18   30 1
    30   19   30 1
    31   20   29 1
    32   21   33 1
    33   22   23 1
    34   22   31 1
    35   24   25 1
    36   24   26 1
    37   25   27 1
    38   26   28 1
    39   27   32 1
    40   28   34 1
    41   29   30 1
    42    1   39 1
    43    2   40 1
    44    3   41 1
    45    4   42 1
    46    5   43 1
    47   11   44 1
    48   11   45 1
    49   12   46 1
    50   12   47 1
    51   13   48 1
    52   13   49 1
    53   14   50 1
    54   14   51 1
    55   15   52 1
    56   15   53 1
    57   16   54 1
    58   16   55 1
    59   17   56 1
    60   17   57 1
    61   18   58 1
    62   18   59 1
    63   19   60 1
    64   19   61 1
    65   20   62 1
    66   21   63 1
    67   23   64 1
    68   23   65 1
    69   24   66 1
    70   24   67 1
    71   25   68 1
    72   25   69 1
    73   26   70 1
    74   26   71 1
    75   27   72 1
    76   27   73 1
    77   28   74 1
    78   31   75 1
    79   31   76 1
    80   32   77 1
    81   32   78 1
    82   33   79 1
    83   34   80 1
@<TRIPOS>MOLECULE
1a46_ligand_71
   80    83     0     0     0
SMALL
USER_CHARGES

mmff94s_NoEstat = 82.50
@<TRIPOS>ATOM
      1 C1         -6.8775    5.0901  -14.7309 C.ar      1 <0>        -0.1300
      2 C2         -5.5917    5.6294  -14.7709 C.ar      1 <0>        -0.1323
      3 C3         -7.3842    4.5832  -13.5342 C.ar      1 <0>        -0.1309
      4 C4         -4.8126    5.6616  -13.6144 C.ar      1 <0>        -0.1275
      5 C5         -6.6051    4.6154  -12.3777 C.ar      1 <0>        -0.1272
      6 C6         -5.3244    5.1544  -12.4253 C.ar      1 <0>        -0.0843
      7 C7         -2.7863    3.9453   -9.7694 C.2       1 <0>         0.6709
      8 C8          2.7796    3.2097   -6.1637 C.2       1 <0>         0.4867
      9 C9          4.2587    3.4565   -6.1009 C.2       1 <0>         0.5883
     10 C10        -0.0591    2.8141   -8.5012 C.2       1 <0>         0.6572
     11 C11         8.9757    1.4639   -7.8314 C.3       1 <0>        -0.0802
     12 C12         8.5623    1.6823   -6.3787 C.3       1 <0>        -0.0765
     13 C13         8.3422    2.4973   -8.7587 C.3       1 <0>        -0.0774
     14 C14         7.0427    1.7177   -6.2244 C.3       1 <0>        -0.0953
     15 C15         6.8224    2.5330   -8.6075 C.3       1 <0>        -0.0906
     16 C16        -1.6498    0.9246   -8.0710 C.3       1 <0>        -0.0871
     17 C17        -4.5618    2.6685  -11.0314 C.3       1 <0>        -0.0716
     18 C18        -1.8952    0.4385   -9.4981 C.3       1 <0>         0.1333
     19 C19        -3.9477    1.4257  -10.3641 C.3       1 <0>         0.1246
     20 C20        -1.4789    2.4202   -8.2321 C.3       1 <0>         0.0606
     21 C21         6.4119    2.7646   -7.1492 C.3       1 <0>         0.1012
     22 C22        -3.6459    3.9150  -11.0410 C.3       1 <0>         0.1554
     23 C23        -4.4863    5.1891  -11.1812 C.3       1 <0>        -0.0356
     24 C24         1.5857    6.0302   -6.5865 C.3       1 <0>        -0.0795
     25 C25         1.6811    7.5259   -6.9095 C.3       1 <0>        -0.1203
     26 C26         2.1570    5.1335   -7.6933 C.3       1 <0>        -0.0920
     27 C27         1.0885    8.4192   -5.8200 C.3       1 <0>         0.1502
     28 C28         2.0196    3.6328   -7.4097 C.3       1 <0>         0.0224
     29 N1         -2.2374    2.7178   -9.4321 N.am      1 <0>        -0.3553
     30 N2         -2.5018    1.5760  -10.2111 N.3       1 <0>        -0.4320
     31 N3         -2.6997    3.8562  -12.1647 N.3       1 <0>        -0.9031
     32 N4          1.1980    9.8225   -6.2046 N.3       1 <0>        -0.9068
     33 N5          4.9558    2.7197   -7.0299 N.am      1 <0>        -0.5526
     34 N6          0.6426    3.2153   -7.3763 N.am      1 <0>        -0.5576
     35 O1         -2.5986    4.9773   -9.1254 O.2       1 <0>        -0.6710
     36 O2          2.2586    2.7495   -5.1557 O.2       1 <0>        -0.4901
     37 O3          4.6736    4.2333   -5.2564 O.2       1 <0>        -0.5902
     38 O4          0.3766    2.7593   -9.6452 O.2       1 <0>        -0.5833
     39 H1         -7.4841    5.0650  -15.6314 H         1 <0>         0.1320
     40 H2         -5.1973    6.0241  -15.7027 H         1 <0>         0.1324
     41 H3         -8.3853    4.1632  -13.5032 H         1 <0>         0.1328
     42 H4         -3.8120    6.0837  -13.6551 H         1 <0>         0.1324
     43 H5         -7.0082    4.2181  -11.4499 H         1 <0>         0.1434
     44 H6         10.0672    1.5130   -7.9155 H         1 <0>         0.0405
     45 H7          8.6750    0.4576   -8.1481 H         1 <0>         0.0421
     46 H8          8.9775    0.8840   -5.7533 H         1 <0>         0.0362
     47 H9          8.9870    2.6264   -6.0159 H         1 <0>         0.0439
     48 H10         8.7538    3.4895   -8.5363 H         1 <0>         0.0350
     49 H11         8.6037    2.2687   -9.7981 H         1 <0>         0.0428
     50 H12         6.6307    0.7243   -6.4460 H         1 <0>         0.0663
     51 H13         6.7838    1.9350   -5.1810 H         1 <0>         0.0466
     52 H14         6.4082    3.3249   -9.2434 H         1 <0>         0.0493
     53 H15         6.3975    1.5882   -8.9715 H         1 <0>         0.0520
     54 H16        -2.5391    0.7200   -7.4620 H         1 <0>         0.0915
     55 H17        -0.7905    0.4314   -7.6064 H         1 <0>         0.0601
     56 H18        -4.8571    2.4214  -12.0603 H         1 <0>         0.0688
     57 H19        -5.4956    2.9043  -10.5031 H         1 <0>         0.0630
     58 H20        -0.9338    0.2117   -9.9745 H         1 <0>         0.0807
     59 H21        -2.4949   -0.4779   -9.5259 H         1 <0>         0.0380
     60 H22        -4.4307    1.2677   -9.3899 H         1 <0>         0.0484
     61 H23        -4.1761    0.5456  -10.9773 H         1 <0>         0.0697
     62 H24        -1.8462    2.9971   -7.3786 H         1 <0>         0.0843
     63 H25         6.7153    3.7695   -6.8335 H         1 <0>         0.0831
     64 H26        -3.8200    6.0535  -11.1955 H         1 <0>         0.0704
     65 H27        -5.1199    5.2949  -10.2986 H         1 <0>         0.0718
     66 H28         2.1358    5.8550   -5.6547 H         1 <0>         0.0606
     67 H29         0.5392    5.7688   -6.3906 H         1 <0>         0.0458
     68 H30         2.7419    7.7748   -7.0444 H         1 <0>         0.0375
     69 H31         1.1870    7.7255   -7.8687 H         1 <0>         0.0392
     70 H32         3.2164    5.3787   -7.8393 H         1 <0>         0.0606
     71 H33         1.6466    5.3535   -8.6384 H         1 <0>         0.0579
     72 H34         1.6137    8.2608   -4.8719 H         1 <0>         0.0571
     73 H35         0.0315    8.1861   -5.6617 H         1 <0>         0.0503
     74 H36         2.4714    3.0747   -8.2388 H         1 <0>         0.0993
     75 H37        -2.3461    2.9648  -12.4248 H         1 <0>         0.3700
     76 H38        -2.3015    4.7109  -12.4784 H         1 <0>         0.3660
     77 H39         0.9557   10.5154   -5.5293 H         1 <0>         0.3465
     78 H40         1.3102   10.0373   -7.1723 H         1 <0>         0.3446
     79 H41         4.4356    2.1176   -7.6610 H         1 <0>         0.3148
     80 H42         0.1596    3.2148   -6.4798 H         1 <0>         0.3220
@<TRIPOS>BOND
     1    1    2 ar
     2    1    3 ar
     3    2    4 ar
     4    3    5 ar
     5    4    6 ar
     6    5    6 ar
     7    6   23 1
     8    7   22 1
     9    7   29 am
    10    7   35 2
    11    8    9 1
    12    8   28 1
    13    8   36 2
    14    9   33 am
    15    9   37 2
    16   10   20 1
    17   10   34 am
    18   10   38 2
    19   11   12 1
    20   11   13 1
    21   12   14 1
    22   13   15 1
    23   14   21 1
    24   15   21 1
    25   16   18 1
    26   16   20 1
    27   17   19 1
    28   17   22 1
    29   18   30 1
    30   19   30 1
    31   20   29 1
    32   21   33 1
    33   22   23 1
    34   22   31 1
    35   24   25 1
    36   24   26 1
    37   25   27 1
    38   26   28 1
    39   27   32 1
    40   28   34 1
    41   29   30 1
    42    1   39 1
    43    2   40 1
    44    3   41 1
    45    4   42 1
    46    5   43 1
    47   11   44 1
    48   11   45 1
    49   12   46 1
    50   12   47 1
    51   13   48 1
    52   13   49 1
    53   14   50 1
    54   14   51 1
    55   15   52 1
    56   15   53 1
    57   16   54 1
    58   16   55 1
    59   17   56 1
    60   17   57 1
    61   18   58 1
    62   18   59 1
    63   19   60 1
    64   19   61 1
    65   20   62 1
    66   21   63 1
    67   23   64 1
    68   23   65 1
    69   24   66 1
    70   24   67 1
    71   25   68 1
    72   25   69 1
    73   26   70 1
    74   26   71 1
    75   27   72 1
    76   27   73 1
    77   28   74 1
    78   31   75 1
    79   31   76 1
    80   32   77 1
    81   32   78 1
    82   33   79 1
    83   34   80 1
@<TRIPOS>MOLECULE
1a46_ligand_72
   80    83     0     0     0
SMALL
USER_CHARGES

mmff94s_NoEstat = 82.52
@<TRIPOS>ATOM
      1 C1         -4.4072   -3.0319  -14.4211 C.ar      1 <0>        -0.1300
      2 C2         -3.1014   -2.5683  -14.5810 C.ar      1 <0>        -0.1323
      3 C3         -5.2666   -2.3997  -13.5224 C.ar      1 <0>        -0.1309
      4 C4         -2.6549   -1.4727  -13.8421 C.ar      1 <0>        -0.1275
      5 C5         -4.8200   -1.3041  -12.7835 C.ar      1 <0>        -0.1272
      6 C6         -3.5171   -0.8478  -12.9482 C.ar      1 <0>        -0.0843
      7 C7         -1.9267    1.0916  -10.0042 C.2       1 <0>         0.6709
      8 C8          2.7796    3.2097   -6.1637 C.2       1 <0>         0.4867
      9 C9          2.0233    2.5606   -5.0416 C.2       1 <0>         0.5883
     10 C10         0.2181    1.9581   -7.7739 C.2       1 <0>         0.6572
     11 C11        -1.1983    3.7207   -0.8594 C.3       1 <0>        -0.0802
     12 C12        -1.9301    3.4474   -2.1704 C.3       1 <0>        -0.0765
     13 C13         0.1390    2.9880   -0.7975 C.3       1 <0>        -0.0774
     14 C14        -1.0566    3.7714   -3.3812 C.3       1 <0>        -0.0953
     15 C15         1.0150    3.3108   -2.0068 C.3       1 <0>        -0.0906
     16 C16        -1.6423    1.0361   -6.3687 C.3       1 <0>        -0.0871
     17 C17        -3.4475   -0.9240   -9.9997 C.3       1 <0>        -0.0716
     18 C18        -1.5606   -0.4439   -6.7372 C.3       1 <0>         0.1333
     19 C19        -3.1819   -0.9495   -8.4846 C.3       1 <0>         0.1246
     20 C20        -1.2590    1.7411   -7.6524 C.3       1 <0>         0.0606
     21 C21         0.2802    3.0242   -3.3210 C.3       1 <0>         0.1012
     22 C22        -2.4199   -0.1108  -10.8216 C.3       1 <0>         0.1554
     23 C23        -3.0368    0.3307  -12.1535 C.3       1 <0>        -0.0356
     24 C24         1.5857    6.0302   -6.5865 C.3       1 <0>        -0.0795
     25 C25         1.6811    7.5259   -6.9095 C.3       1 <0>        -0.1203
     26 C26         2.1570    5.1335   -7.6933 C.3       1 <0>        -0.0920
     27 C27         1.0885    8.4192   -5.8200 C.3       1 <0>         0.1502
     28 C28         2.0196    3.6328   -7.4097 C.3       1 <0>         0.0224
     29 N1         -1.6352    0.7917   -8.6825 N.am      1 <0>        -0.3553
     30 N2         -1.8196   -0.5121   -8.1858 N.3       1 <0>        -0.4320
     31 N3         -1.2259   -0.9195  -11.1076 N.3       1 <0>        -0.9031
     32 N4          1.8018    8.2205   -4.5627 N.3       1 <0>        -0.9068
     33 N5          1.1182    3.4132   -4.4536 N.am      1 <0>        -0.5526
     34 N6          0.6426    3.2153   -7.3763 N.am      1 <0>        -0.5576
     35 O1         -1.7935    2.2123  -10.4955 O.2       1 <0>        -0.6710
     36 O2          3.9949    3.2835   -6.0334 O.2       1 <0>        -0.4901
     37 O3          2.2923    1.4031   -4.7649 O.2       1 <0>        -0.5902
     38 O4          0.9290    1.0536   -8.1959 O.2       1 <0>        -0.5833
     39 H1         -4.7549   -3.8850  -14.9963 H         1 <0>         0.1320
     40 H2         -2.4324   -3.0606  -15.2808 H         1 <0>         0.1324
     41 H3         -6.2832   -2.7609  -13.3979 H         1 <0>         0.1328
     42 H4         -1.6358   -1.1186  -13.9733 H         1 <0>         0.1324
     43 H5         -5.4966   -0.8180  -12.0857 H         1 <0>         0.1434
     44 H6         -1.0277    4.7996   -0.7555 H         1 <0>         0.0405
     45 H7         -1.8264    3.4136   -0.0155 H         1 <0>         0.0421
     46 H8         -2.2292    2.3926   -2.2086 H         1 <0>         0.0362
     47 H9         -2.8496    4.0421   -2.2100 H         1 <0>         0.0439
     48 H10         0.6668    3.2610    0.1233 H         1 <0>         0.0350
     49 H11        -0.0392    1.9064   -0.7552 H         1 <0>         0.0428
     50 H12        -1.5921    3.5091   -4.3016 H         1 <0>         0.0663
     51 H13        -0.8793    4.8542   -3.4236 H         1 <0>         0.0466
     52 H14         1.3155    4.3661   -1.9679 H         1 <0>         0.0493
     53 H15         1.9394    2.7227   -1.9581 H         1 <0>         0.0520
     54 H16        -2.6779    1.2865   -6.1074 H         1 <0>         0.0915
     55 H17        -0.9998    1.2887   -5.5196 H         1 <0>         0.0601
     56 H18        -3.4897   -1.9539  -10.3797 H         1 <0>         0.0688
     57 H19        -4.4523   -0.5086  -10.1558 H         1 <0>         0.0630
     58 H20        -0.5419   -0.8072   -6.5560 H         1 <0>         0.0807
     59 H21        -2.2364   -1.0589   -6.1327 H         1 <0>         0.0380
     60 H22        -3.9187   -0.3080   -7.9817 H         1 <0>         0.0484
     61 H23        -3.3442   -1.9688   -8.1140 H         1 <0>         0.0697
     62 H24        -1.7661    2.6997   -7.7936 H         1 <0>         0.0843
     63 H25         0.1077    1.9466   -3.4222 H         1 <0>         0.0831
     64 H26        -2.2923    0.8934  -12.7197 H         1 <0>         0.0704
     65 H27        -3.8625    1.0157  -11.9521 H         1 <0>         0.0718
     66 H28         2.1358    5.8550   -5.6547 H         1 <0>         0.0606
     67 H29         0.5392    5.7688   -6.3906 H         1 <0>         0.0458
     68 H30         2.7419    7.7748   -7.0444 H         1 <0>         0.0375
     69 H31         1.1870    7.7255   -7.8687 H         1 <0>         0.0392
     70 H32         3.2164    5.3787   -7.8393 H         1 <0>         0.0606
     71 H33         1.6466    5.3535   -8.6384 H         1 <0>         0.0579
     72 H34         0.0275    8.1885   -5.6755 H         1 <0>         0.0571
     73 H35         1.1682    9.4739   -6.0992 H         1 <0>         0.0503
     74 H36         2.4714    3.0747   -8.2388 H         1 <0>         0.0993
     75 H37        -0.9249   -1.5612  -10.4112 H         1 <0>         0.3700
     76 H38        -0.6609   -0.6518  -11.8799 H         1 <0>         0.3660
     77 H39         1.4387    8.6562   -3.7421 H         1 <0>         0.3465
     78 H40         2.7216    7.8360   -4.5996 H         1 <0>         0.3446
     79 H41         1.0281    4.3550   -4.8229 H         1 <0>         0.3148
     80 H42        -0.0552    3.8781   -7.0434 H         1 <0>         0.3220
@<TRIPOS>BOND
     1    1    2 ar
     2    1    3 ar
     3    2    4 ar
     4    3    5 ar
     5    4    6 ar
     6    5    6 ar
     7    6   23 1
     8    7   22 1
     9    7   29 am
    10    7   35 2
    11    8    9 1
    12    8   28 1
    13    8   36 2
    14    9   33 am
    15    9   37 2
    16   10   20 1
    17   10   34 am
    18   10   38 2
    19   11   12 1
    20   11   13 1
    21   12   14 1
    22   13   15 1
    23   14   21 1
    24   15   21 1
    25   16   18 1
    26   16   20 1
    27   17   19 1
    28   17   22 1
    29   18   30 1
    30   19   30 1
    31   20   29 1
    32   21   33 1
    33   22   23 1
    34   22   31 1
    35   24   25 1
    36   24   26 1
    37   25   27 1
    38   26   28 1
    39   27   32 1
    40   28   34 1
    41   29   30 1
    42    1   39 1
    43    2   40 1
    44    3   41 1
    45    4   42 1
    46    5   43 1
    47   11   44 1
    48   11   45 1
    49   12   46 1
    50   12   47 1
    51   13   48 1
    52   13   49 1
    53   14   50 1
    54   14   51 1
    55   15   52 1
    56   15   53 1
    57   16   54 1
    58   16   55 1
    59   17   56 1
    60   17   57 1
    61   18   58 1
    62   18   59 1
    63   19   60 1
    64   19   61 1
    65   20   62 1
    66   21   63 1
    67   23   64 1
    68   23   65 1
    69   24   66 1
    70   24   67 1
    71   25   68 1
    72   25   69 1
    73   26   70 1
    74   26   71 1
    75   27   72 1
    76   27   73 1
    77   28   74 1
    78   31   75 1
    79   31   76 1
    80   32   77 1
    81   32   78 1
    82   33   79 1
    83   34   80 1
@<TRIPOS>MOLECULE
1a46_ligand_73
   80    83     0     0     0
SMALL
USER_CHARGES

mmff94s_NoEstat = 82.58
@<TRIPOS>ATOM
      1 C1          5.9504   -1.3642  -10.1903 C.ar      1 <0>        -0.1300
      2 C2          6.6765   -1.8241   -9.0918 C.ar      1 <0>        -0.1323
      3 C3          5.5463   -0.0305  -10.2504 C.ar      1 <0>        -0.1309
      4 C4          6.9984   -0.9504   -8.0532 C.ar      1 <0>        -0.1275
      5 C5          5.8681    0.8432   -9.2119 C.ar      1 <0>        -0.1272
      6 C6          6.5921    0.3776   -8.1201 C.ar      1 <0>        -0.0843
      7 C7          6.1974    2.2868   -4.7798 C.2       1 <0>         0.6709
      8 C8          5.2358    2.3798    1.5634 C.2       1 <0>         0.4867
      9 C9          5.6522    1.1980    2.3894 C.2       1 <0>         0.5883
     10 C10         5.7098    2.8119   -1.6475 C.2       1 <0>         0.6572
     11 C11         8.7227    2.0199    6.1701 C.3       1 <0>        -0.0802
     12 C12         8.9995    1.5375    4.7486 C.3       1 <0>        -0.0765
     13 C13         7.2401    2.3027    6.3972 C.3       1 <0>        -0.0774
     14 C14         8.1296    0.3339    4.3835 C.3       1 <0>        -0.0953
     15 C15         6.3745    1.0970    6.0285 C.3       1 <0>        -0.0906
     16 C16         3.6723    3.8570   -2.6681 C.3       1 <0>        -0.0871
     17 C17         4.4858    1.7161   -6.5463 C.3       1 <0>        -0.0716
     18 C18         2.9535    2.6133   -3.1875 C.3       1 <0>         0.1333
     19 C19         3.4659    2.2898   -5.5476 C.3       1 <0>         0.1246
     20 C20         5.1372    3.5153   -2.8394 C.3       1 <0>         0.0606
     21 C21         6.6330    0.5923    4.6026 C.3       1 <0>         0.1012
     22 C22         5.8481    1.3265   -5.9256 C.3       1 <0>         0.1554
     23 C23         6.9383    1.3175   -7.0029 C.3       1 <0>        -0.0356
     24 C24         6.0158    5.3379    2.0114 C.3       1 <0>        -0.0795
     25 C25         6.7209    6.4716    2.7653 C.3       1 <0>        -0.1203
     26 C26         6.9719    4.2276    1.5544 C.3       1 <0>        -0.0920
     27 C27         5.7742    7.5909    3.1979 C.3       1 <0>         0.1502
     28 C28         6.2906    3.1130    0.7514 C.3       1 <0>         0.0224
     29 N1          5.1345    2.5635   -3.9339 N.am      1 <0>        -0.3553
     30 N2          3.8653    2.0037   -4.1710 N.3       1 <0>        -0.4320
     31 N3          5.7803   -0.0123   -5.3216 N.3       1 <0>        -0.9031
     32 N4          6.5168    8.6391    3.8900 N.3       1 <0>        -0.9068
     33 N5          6.1375    1.5625    3.6237 N.am      1 <0>        -0.5526
     34 N6          5.7762    3.5917   -0.5046 N.am      1 <0>        -0.5576
     35 O1          7.3278    2.7504   -4.6301 O.2       1 <0>        -0.6710
     36 O2          4.0675    2.7325    1.6631 O.2       1 <0>        -0.4901
     37 O3          5.5427    0.0877    1.8954 O.2       1 <0>        -0.5902
     38 O4          6.0670    1.6440   -1.7490 O.2       1 <0>        -0.5833
     39 H1          5.6997   -2.0446  -10.9989 H         1 <0>         0.1320
     40 H2          6.9911   -2.8626   -9.0451 H         1 <0>         0.1324
     41 H3          4.9808    0.3274  -11.1059 H         1 <0>         0.1328
     42 H4          7.5644   -1.3176   -7.2012 H         1 <0>         0.1324
     43 H5          5.5489    1.8806   -9.2673 H         1 <0>         0.1434
     44 H6          9.0596    1.2576    6.8835 H         1 <0>         0.0405
     45 H7          9.3063    2.9251    6.3727 H         1 <0>         0.0421
     46 H8          8.8154    2.3561    4.0424 H         1 <0>         0.0362
     47 H9         10.0575    1.2680    4.6519 H         1 <0>         0.0439
     48 H10         7.0732    2.5664    7.4478 H         1 <0>         0.0350
     49 H11         6.9383    3.1721    5.8007 H         1 <0>         0.0428
     50 H12         8.3159    0.0588    3.3382 H         1 <0>         0.0663
     51 H13         8.4360   -0.5230    4.9969 H         1 <0>         0.0466
     52 H14         6.5799    0.2840    6.7364 H         1 <0>         0.0493
     53 H15         5.3172    1.3630    6.1484 H         1 <0>         0.0520
     54 H16         3.4181    4.7133   -3.3051 H         1 <0>         0.0915
     55 H17         3.3944    4.0971   -1.6373 H         1 <0>         0.0601
     56 H18         4.0497    0.8441   -7.0524 H         1 <0>         0.0688
     57 H19         4.6431    2.4675   -7.3320 H         1 <0>         0.0630
     58 H20         2.8170    1.9026   -2.3635 H         1 <0>         0.0807
     59 H21         1.9588    2.8453   -3.5837 H         1 <0>         0.0380
     60 H22         3.3744    3.3723   -5.7123 H         1 <0>         0.0484
     61 H23         2.4818    1.8533   -5.7569 H         1 <0>         0.0697
     62 H24         5.7646    4.3810   -3.0694 H         1 <0>         0.0843
     63 H25         6.0671   -0.3284    4.4260 H         1 <0>         0.0831
     64 H26         7.8868    1.0311   -6.5450 H         1 <0>         0.0704
     65 H27         7.0672    2.3317   -7.3854 H         1 <0>         0.0718
     66 H28         5.2579    4.9142    2.6804 H         1 <0>         0.0606
     67 H29         5.4809    5.7546    1.1500 H         1 <0>         0.0458
     68 H30         7.2000    6.0392    3.6534 H         1 <0>         0.0375
     69 H31         7.5258    6.8807    2.1417 H         1 <0>         0.0392
     70 H32         7.4599    3.7926    2.4354 H         1 <0>         0.0606
     71 H33         7.7645    4.6634    0.9347 H         1 <0>         0.0579
     72 H34         4.9986    7.1962    3.8630 H         1 <0>         0.0571
     73 H35         5.2784    8.0349    2.3297 H         1 <0>         0.0503
     74 H36         7.0421    2.3587    0.4881 H         1 <0>         0.0993
     75 H37         4.9287   -0.2795   -4.8849 H         1 <0>         0.3700
     76 H38         6.6336   -0.5056   -5.1950 H         1 <0>         0.3660
     77 H39         5.9996    9.3711    4.3277 H         1 <0>         0.3465
     78 H40         7.4997    8.7018    3.7315 H         1 <0>         0.3446
     79 H41         6.1529    2.5484    3.8672 H         1 <0>         0.3148
     80 H42         5.4441    4.5531   -0.5557 H         1 <0>         0.3220
@<TRIPOS>BOND
     1    1    2 ar
     2    1    3 ar
     3    2    4 ar
     4    3    5 ar
     5    4    6 ar
     6    5    6 ar
     7    6   23 1
     8    7   22 1
     9    7   29 am
    10    7   35 2
    11    8    9 1
    12    8   28 1
    13    8   36 2
    14    9   33 am
    15    9   37 2
    16   10   20 1
    17   10   34 am
    18   10   38 2
    19   11   12 1
    20   11   13 1
    21   12   14 1
    22   13   15 1
    23   14   21 1
    24   15   21 1
    25   16   18 1
    26   16   20 1
    27   17   19 1
    28   17   22 1
    29   18   30 1
    30   19   30 1
    31   20   29 1
    32   21   33 1
    33   22   23 1
    34   22   31 1
    35   24   25 1
    36   24   26 1
    37   25   27 1
    38   26   28 1
    39   27   32 1
    40   28   34 1
    41   29   30 1
    42    1   39 1
    43    2   40 1
    44    3   41 1
    45    4   42 1
    46    5   43 1
    47   11   44 1
    48   11   45 1
    49   12   46 1
    50   12   47 1
    51   13   48 1
    52   13   49 1
    53   14   50 1
    54   14   51 1
    55   15   52 1
    56   15   53 1
    57   16   54 1
    58   16   55 1
    59   17   56 1
    60   17   57 1
    61   18   58 1
    62   18   59 1
    63   19   60 1
    64   19   61 1
    65   20   62 1
    66   21   63 1
    67   23   64 1
    68   23   65 1
    69   24   66 1
    70   24   67 1
    71   25   68 1
    72   25   69 1
    73   26   70 1
    74   26   71 1
    75   27   72 1
    76   27   73 1
    77   28   74 1
    78   31   75 1
    79   31   76 1
    80   32   77 1
    81   32   78 1
    82   33   79 1
    83   34   80 1
@<TRIPOS>MOLECULE
1a46_ligand_74
   80    83     0     0     0
SMALL
USER_CHARGES

mmff94s_NoEstat = 82.58
@<TRIPOS>ATOM
      1 C1          9.3427    1.2226  -10.2936 C.ar      1 <0>        -0.1300
      2 C2          9.9666    0.8172   -9.1138 C.ar      1 <0>        -0.1323
      3 C3          8.4336    2.2805  -10.2739 C.ar      1 <0>        -0.1309
      4 C4          9.6814    1.4695   -7.9143 C.ar      1 <0>        -0.1275
      5 C5          8.1485    2.9328   -9.0744 C.ar      1 <0>        -0.1272
      6 C6          8.7742    2.5231   -7.9024 C.ar      1 <0>        -0.0843
      7 C7          6.9710    3.2795   -4.5657 C.2       1 <0>         0.6709
      8 C8          5.2358    2.3798    1.5634 C.2       1 <0>         0.4867
      9 C9          5.6457    1.7076    2.8411 C.2       1 <0>         0.5883
     10 C10         5.7098    2.8119   -1.6475 C.2       1 <0>         0.6572
     11 C11         8.8102   -2.1772    2.4201 C.3       1 <0>        -0.0802
     12 C12         7.2912   -2.2999    2.3329 C.3       1 <0>        -0.0765
     13 C13         9.2558   -0.7274    2.5910 C.3       1 <0>        -0.0774
     14 C14         6.6034   -1.6313    3.5239 C.3       1 <0>        -0.0953
     15 C15         8.5635   -0.0627    3.7817 C.3       1 <0>        -0.0906
     16 C16         3.6624    3.2324   -3.0320 C.3       1 <0>        -0.0871
     17 C17         6.0388    2.5547   -6.7975 C.3       1 <0>        -0.0716
     18 C18         3.6514    1.9752   -3.8994 C.3       1 <0>         0.1333
     19 C19         4.6996    2.4463   -6.0480 C.3       1 <0>         0.1246
     20 C20         5.1372    3.5153   -2.8394 C.3       1 <0>         0.0606
     21 C21         7.0342   -0.1713    3.7178 C.3       1 <0>         0.1012
     22 C22         7.2891    2.5653   -5.8869 C.3       1 <0>         0.1554
     23 C23         8.4675    3.2247   -6.6121 C.3       1 <0>        -0.0356
     24 C24         6.0158    5.3379    2.0114 C.3       1 <0>        -0.0795
     25 C25         6.7209    6.4716    2.7653 C.3       1 <0>        -0.1203
     26 C26         6.9719    4.2276    1.5544 C.3       1 <0>        -0.0920
     27 C27         5.7742    7.5909    3.1979 C.3       1 <0>         0.1502
     28 C28         6.2906    3.1130    0.7514 C.3       1 <0>         0.0224
     29 N1          5.7488    2.9259   -4.0152 N.am      1 <0>        -0.3553
     30 N2          4.9069    2.0073   -4.6693 N.3       1 <0>        -0.4320
     31 N3          7.6768    1.1953   -5.5201 N.3       1 <0>        -0.9031
     32 N4          6.5168    8.6391    3.8900 N.3       1 <0>        -0.9068
     33 N5          6.5118    0.6599    2.6310 N.am      1 <0>        -0.5526
     34 N6          5.7762    3.5917   -0.5046 N.am      1 <0>        -0.5576
     35 O1          7.7474    4.0812   -4.0464 O.2       1 <0>        -0.6710
     36 O2          4.0412    2.3628    1.2952 O.2       1 <0>        -0.4901
     37 O3          5.1730    2.1266    3.8850 O.2       1 <0>        -0.5902
     38 O4          6.0670    1.6440   -1.7490 O.2       1 <0>        -0.5833
     39 H1          9.5646    0.7147  -11.2275 H         1 <0>         0.1320
     40 H2         10.6743   -0.0064   -9.1292 H         1 <0>         0.1324
     41 H3          7.9478    2.5960  -11.1926 H         1 <0>         0.1328
     42 H4         10.1723    1.1467   -7.0000 H         1 <0>         0.1324
     43 H5          7.4388    3.7559   -9.0687 H         1 <0>         0.1434
     44 H6          9.1735   -2.7703    3.2685 H         1 <0>         0.0405
     45 H7          9.2669   -2.5997    1.5179 H         1 <0>         0.0421
     46 H8          6.9407   -1.8448    1.3987 H         1 <0>         0.0362
     47 H9          7.0101   -3.3586    2.2941 H         1 <0>         0.0439
     48 H10        10.3421   -0.6911    2.7313 H         1 <0>         0.0350
     49 H11         9.0361   -0.1670    1.6742 H         1 <0>         0.0428
     50 H12         5.5163   -1.6894    3.3910 H         1 <0>         0.0663
     51 H13         6.8429   -2.1965    4.4337 H         1 <0>         0.0466
     52 H14         8.9157   -0.5376    4.7063 H         1 <0>         0.0493
     53 H15         8.8649    0.9907    3.8310 H         1 <0>         0.0520
     54 H16         3.1996    4.0578   -3.5869 H         1 <0>         0.0915
     55 H17         3.1150    3.0948   -2.0945 H         1 <0>         0.0601
     56 H18         6.1186    1.7328   -7.5220 H         1 <0>         0.0688
     57 H19         6.0134    3.4760   -7.3953 H         1 <0>         0.0630
     58 H20         3.6705    1.0888   -3.2538 H         1 <0>         0.0807
     59 H21         2.7495    1.9066   -4.5175 H         1 <0>         0.0380
     60 H22         4.1937    3.4213   -6.0771 H         1 <0>         0.0484
     61 H23         4.0529    1.7380   -6.5798 H         1 <0>         0.0697
     62 H24         5.3721    4.5807   -2.7630 H         1 <0>         0.0843
     63 H25         6.5946    0.2267    4.6384 H         1 <0>         0.0831
     64 H26         9.3395    3.2124   -5.9558 H         1 <0>         0.0704
     65 H27         8.2279    4.2735   -6.7972 H         1 <0>         0.0718
     66 H28         5.2579    4.9142    2.6804 H         1 <0>         0.0606
     67 H29         5.4809    5.7546    1.1500 H         1 <0>         0.0458
     68 H30         7.2000    6.0392    3.6534 H         1 <0>         0.0375
     69 H31         7.5258    6.8807    2.1417 H         1 <0>         0.0392
     70 H32         7.4599    3.7926    2.4354 H         1 <0>         0.0606
     71 H33         7.7645    4.6634    0.9347 H         1 <0>         0.0579
     72 H34         4.9986    7.1962    3.8630 H         1 <0>         0.0571
     73 H35         5.2784    8.0349    2.3297 H         1 <0>         0.0503
     74 H36         7.0421    2.3587    0.4881 H         1 <0>         0.0993
     75 H37         6.9507    0.5323   -5.3773 H         1 <0>         0.3700
     76 H38         8.6161    1.0420   -5.2343 H         1 <0>         0.3660
     77 H39         5.9996    9.3711    4.3277 H         1 <0>         0.3465
     78 H40         7.4997    8.7018    3.7315 H         1 <0>         0.3446
     79 H41         6.8020    0.4535    1.6799 H         1 <0>         0.3148
     80 H42         5.4441    4.5531   -0.5557 H         1 <0>         0.3220
@<TRIPOS>BOND
     1    1    2 ar
     2    1    3 ar
     3    2    4 ar
     4    3    5 ar
     5    4    6 ar
     6    5    6 ar
     7    6   23 1
     8    7   22 1
     9    7   29 am
    10    7   35 2
    11    8    9 1
    12    8   28 1
    13    8   36 2
    14    9   33 am
    15    9   37 2
    16   10   20 1
    17   10   34 am
    18   10   38 2
    19   11   12 1
    20   11   13 1
    21   12   14 1
    22   13   15 1
    23   14   21 1
    24   15   21 1
    25   16   18 1
    26   16   20 1
    27   17   19 1
    28   17   22 1
    29   18   30 1
    30   19   30 1
    31   20   29 1
    32   21   33 1
    33   22   23 1
    34   22   31 1
    35   24   25 1
    36   24   26 1
    37   25   27 1
    38   26   28 1
    39   27   32 1
    40   28   34 1
    41   29   30 1
    42    1   39 1
    43    2   40 1
    44    3   41 1
    45    4   42 1
    46    5   43 1
    47   11   44 1
    48   11   45 1
    49   12   46 1
    50   12   47 1
    51   13   48 1
    52   13   49 1
    53   14   50 1
    54   14   51 1
    55   15   52 1
    56   15   53 1
    57   16   54 1
    58   16   55 1
    59   17   56 1
    60   17   57 1
    61   18   58 1
    62   18   59 1
    63   19   60 1
    64   19   61 1
    65   20   62 1
    66   21   63 1
    67   23   64 1
    68   23   65 1
    69   24   66 1
    70   24   67 1
    71   25   68 1
    72   25   69 1
    73   26   70 1
    74   26   71 1
    75   27   72 1
    76   27   73 1
    77   28   74 1
    78   31   75 1
    79   31   76 1
    80   32   77 1
    81   32   78 1
    82   33   79 1
    83   34   80 1
@<TRIPOS>MOLECULE
1a46_ligand_75
   80    83     0     0     0
SMALL
USER_CHARGES

mmff94s_NoEstat = 82.61
@<TRIPOS>ATOM
      1 C1         11.1945    5.3647   -9.7731 C.ar      1 <0>        -0.1300
      2 C2         11.8337    5.1154   -8.5586 C.ar      1 <0>        -0.1323
      3 C3          9.8873    5.8513   -9.7863 C.ar      1 <0>        -0.1309
      4 C4         11.1656    5.3526   -7.3573 C.ar      1 <0>        -0.1275
      5 C5          9.2192    6.0884   -8.5850 C.ar      1 <0>        -0.1272
      6 C6          9.8628    5.8375   -7.3783 C.ar      1 <0>        -0.0843
      7 C7          7.6425    5.1042   -4.2977 C.2       1 <0>         0.6709
      8 C8          5.2358    2.3798    1.5634 C.2       1 <0>         0.4867
      9 C9          5.6522    1.1980    2.3894 C.2       1 <0>         0.5883
     10 C10         6.5256    3.6321   -1.6689 C.2       1 <0>         0.6572
     11 C11         8.5733   -2.2013    0.3137 C.3       1 <0>        -0.0802
     12 C12         7.0878   -2.2472   -0.0344 C.3       1 <0>        -0.0765
     13 C13         8.9012   -1.0498    1.2605 C.3       1 <0>        -0.0774
     14 C14         6.2162   -2.2794    1.2217 C.3       1 <0>        -0.0953
     15 C15         8.0255   -1.0852    2.5138 C.3       1 <0>        -0.0906
     16 C16         4.6595    3.2577   -3.3009 C.3       1 <0>        -0.0871
     17 C17         7.3760    4.3986   -6.7074 C.3       1 <0>        -0.0716
     18 C18         5.3367    2.3027   -4.2819 C.3       1 <0>         0.1333
     19 C19         6.2012    3.5529   -6.1864 C.3       1 <0>         0.1246
     20 C20         5.7868    4.1659   -2.8575 C.3       1 <0>         0.0606
     21 C21         6.5260   -1.1310    2.1912 C.3       1 <0>         0.1012
     22 C22         8.3797    4.8486   -5.6198 C.3       1 <0>         0.1554
     23 C23         9.1441    6.0926   -6.0861 C.3       1 <0>        -0.0356
     24 C24         6.0158    5.3379    2.0114 C.3       1 <0>        -0.0795
     25 C25         6.7209    6.4716    2.7653 C.3       1 <0>        -0.1203
     26 C26         6.9719    4.2276    1.5544 C.3       1 <0>        -0.0920
     27 C27         5.7742    7.5909    3.1979 C.3       1 <0>         0.1502
     28 C28         6.2906    3.1130    0.7514 C.3       1 <0>         0.0224
     29 N1          6.7058    4.1331   -3.9791 N.am      1 <0>        -0.3553
     30 N2          6.4777    3.0462   -4.8435 N.3       1 <0>        -0.4320
     31 N3          9.3531    3.7833   -5.3380 N.3       1 <0>        -0.9031
     32 N4          4.7531    7.0666    4.0988 N.3       1 <0>        -0.9068
     33 N5          6.0911    0.1457    1.6201 N.am      1 <0>        -0.5526
     34 N6          5.7762    3.5917   -0.5046 N.am      1 <0>        -0.5576
     35 O1          7.8821    6.0807   -3.5877 O.2       1 <0>        -0.6710
     36 O2          4.0675    2.7325    1.6631 O.2       1 <0>        -0.4901
     37 O3          5.5431    1.2807    3.6019 O.2       1 <0>        -0.5902
     38 O4          7.6924    3.2783   -1.7917 O.2       1 <0>        -0.5833
     39 H1         11.7147    5.1800  -10.7084 H         1 <0>         0.1320
     40 H2         12.8515    4.7366   -8.5485 H         1 <0>         0.1324
     41 H3          9.3897    6.0452  -10.7320 H         1 <0>         0.1328
     42 H4         11.6716    5.1554   -6.4159 H         1 <0>         0.1324
     43 H5          8.2009    6.4675   -8.6050 H         1 <0>         0.1434
     44 H6          8.8652   -3.1496    0.7818 H         1 <0>         0.0405
     45 H7          9.1645   -2.1042   -0.6039 H         1 <0>         0.0421
     46 H8          6.8280   -1.3732   -0.6439 H         1 <0>         0.0362
     47 H9          6.8815   -3.1326   -0.6466 H         1 <0>         0.0439
     48 H10         9.9572   -1.1013    1.5494 H         1 <0>         0.0350
     49 H11         8.7621   -0.0959    0.7377 H         1 <0>         0.0428
     50 H12         5.1599   -2.2505    0.9279 H         1 <0>         0.0663
     51 H13         6.3761   -3.2341    1.7388 H         1 <0>         0.0466
     52 H14         8.2894   -1.9712    3.1052 H         1 <0>         0.0493
     53 H15         8.2509   -0.2099    3.1351 H         1 <0>         0.0520
     54 H16         3.9023    3.8458   -3.8340 H         1 <0>         0.0915
     55 H17         4.1709    2.7289   -2.4768 H         1 <0>         0.0601
     56 H18         7.9078    3.8408   -7.4902 H         1 <0>         0.0688
     57 H19         6.9559    5.2827   -7.2061 H         1 <0>         0.0630
     58 H20         5.7303    1.4383   -3.7336 H         1 <0>         0.0807
     59 H21         4.6390    1.9190   -5.0344 H         1 <0>         0.0380
     60 H22         5.2889    4.1652   -6.1941 H         1 <0>         0.0484
     61 H23         6.0298    2.7205   -6.8794 H         1 <0>         0.0697
     62 H24         5.4651    5.1881   -2.6391 H         1 <0>         0.0843
     63 H25         5.9510   -1.2586    3.1143 H         1 <0>         0.0831
     64 H26         9.8520    6.3858   -5.3087 H         1 <0>         0.0704
     65 H27         8.4405    6.9195   -6.1990 H         1 <0>         0.0718
     66 H28         5.2579    4.9142    2.6804 H         1 <0>         0.0606
     67 H29         5.4809    5.7546    1.1500 H         1 <0>         0.0458
     68 H30         7.2000    6.0392    3.6534 H         1 <0>         0.0375
     69 H31         7.5258    6.8807    2.1417 H         1 <0>         0.0392
     70 H32         7.4599    3.7926    2.4354 H         1 <0>         0.0606
     71 H33         7.7645    4.6634    0.9347 H         1 <0>         0.0579
     72 H34         5.2908    8.0386    2.3228 H         1 <0>         0.0571
     73 H35         6.3225    8.3806    3.7198 H         1 <0>         0.0503
     74 H36         7.0421    2.3587    0.4881 H         1 <0>         0.0993
     75 H37         9.0331    2.8434   -5.3754 H         1 <0>         0.3700
     76 H38        10.2196    4.0460   -4.9287 H         1 <0>         0.3660
     77 H39         4.0028    7.6695    4.3608 H         1 <0>         0.3465
     78 H40         4.9421    6.2118    4.5770 H         1 <0>         0.3446
     79 H41         6.1146    0.2589    0.6111 H         1 <0>         0.3148
     80 H42         4.8120    3.9176   -0.5391 H         1 <0>         0.3220
@<TRIPOS>BOND
     1    1    2 ar
     2    1    3 ar
     3    2    4 ar
     4    3    5 ar
     5    4    6 ar
     6    5    6 ar
     7    6   23 1
     8    7   22 1
     9    7   29 am
    10    7   35 2
    11    8    9 1
    12    8   28 1
    13    8   36 2
    14    9   33 am
    15    9   37 2
    16   10   20 1
    17   10   34 am
    18   10   38 2
    19   11   12 1
    20   11   13 1
    21   12   14 1
    22   13   15 1
    23   14   21 1
    24   15   21 1
    25   16   18 1
    26   16   20 1
    27   17   19 1
    28   17   22 1
    29   18   30 1
    30   19   30 1
    31   20   29 1
    32   21   33 1
    33   22   23 1
    34   22   31 1
    35   24   25 1
    36   24   26 1
    37   25   27 1
    38   26   28 1
    39   27   32 1
    40   28   34 1
    41   29   30 1
    42    1   39 1
    43    2   40 1
    44    3   41 1
    45    4   42 1
    46    5   43 1
    47   11   44 1
    48   11   45 1
    49   12   46 1
    50   12   47 1
    51   13   48 1
    52   13   49 1
    53   14   50 1
    54   14   51 1
    55   15   52 1
    56   15   53 1
    57   16   54 1
    58   16   55 1
    59   17   56 1
    60   17   57 1
    61   18   58 1
    62   18   59 1
    63   19   60 1
    64   19   61 1
    65   20   62 1
    66   21   63 1
    67   23   64 1
    68   23   65 1
    69   24   66 1
    70   24   67 1
    71   25   68 1
    72   25   69 1
    73   26   70 1
    74   26   71 1
    75   27   72 1
    76   27   73 1
    77   28   74 1
    78   31   75 1
    79   31   76 1
    80   32   77 1
    81   32   78 1
    82   33   79 1
    83   34   80 1
@<TRIPOS>MOLECULE
1a46_ligand_76
   80    83     0     0     0
SMALL
USER_CHARGES

mmff94s_NoEstat = 82.66
@<TRIPOS>ATOM
      1 C1         11.2754    4.8325   -9.0920 C.ar      1 <0>        -0.1300
      2 C2         11.7701    4.4180   -7.8554 C.ar      1 <0>        -0.1323
      3 C3         10.0202    5.4353   -9.1745 C.ar      1 <0>        -0.1309
      4 C4         11.0095    4.6062   -6.7014 C.ar      1 <0>        -0.1275
      5 C5          9.2596    5.6235   -8.0205 C.ar      1 <0>        -0.1272
      6 C6          9.7592    5.2077   -6.7914 C.ar      1 <0>        -0.0843
      7 C7          7.1956    4.4061   -4.0088 C.2       1 <0>         0.6709
      8 C8          5.2358    2.3798    1.5634 C.2       1 <0>         0.4867
      9 C9          3.8230    2.3549    1.0577 C.2       1 <0>         0.5883
     10 C10         5.7098    2.8119   -1.6475 C.2       1 <0>         0.6572
     11 C11         1.4085   -1.9541    1.0568 C.3       1 <0>        -0.0802
     12 C12         2.4102   -1.7120   -0.0693 C.3       1 <0>        -0.0765
     13 C13         1.3521   -0.7805    2.0311 C.3       1 <0>        -0.0774
     14 C14         2.1398   -0.3897   -0.7884 C.3       1 <0>        -0.0953
     15 C15         1.0838    0.5396    1.3070 C.3       1 <0>        -0.0906
     16 C16         3.9879    2.7570   -3.4688 C.3       1 <0>        -0.0871
     17 C17         7.1089    3.9469   -6.4901 C.3       1 <0>        -0.0716
     18 C18         4.6769    1.8362   -4.4740 C.3       1 <0>         0.1333
     19 C19         5.8233    3.1683   -6.1618 C.3       1 <0>         0.1246
     20 C20         5.1372    3.5153   -2.8394 C.3       1 <0>         0.0606
     21 C21         2.0784    0.8075    0.1696 C.3       1 <0>         0.1012
     22 C22         8.0351    4.2042   -5.2782 C.3       1 <0>         0.1554
     23 C23         8.9412    5.4102   -5.5501 C.3       1 <0>        -0.0356
     24 C24         6.0158    5.3379    2.0114 C.3       1 <0>        -0.0795
     25 C25         6.7209    6.4716    2.7653 C.3       1 <0>        -0.1203
     26 C26         6.9719    4.2276    1.5544 C.3       1 <0>        -0.0920
     27 C27         5.7742    7.5909    3.1979 C.3       1 <0>         0.1502
     28 C28         6.2906    3.1130    0.7514 C.3       1 <0>         0.0224
     29 N1          6.1557    3.4998   -3.8720 N.am      1 <0>        -0.3553
     30 N2          5.9246    2.5201   -4.8556 N.3       1 <0>        -0.4320
     31 N3          8.8854    3.0337   -5.0159 N.3       1 <0>        -0.9031
     32 N4          4.7531    7.0666    4.0988 N.3       1 <0>        -0.9068
     33 N5          3.4082    1.0891    0.7148 N.am      1 <0>        -0.5526
     34 N6          5.7762    3.5917   -0.5046 N.am      1 <0>        -0.5576
     35 O1          7.4442    5.2891   -3.1880 O.2       1 <0>        -0.6710
     36 O2          5.4669    1.7271    2.5732 O.2       1 <0>        -0.4901
     37 O3          3.2225    3.4147    0.9857 O.2       1 <0>        -0.5902
     38 O4          6.0670    1.6440   -1.7490 O.2       1 <0>        -0.5833
     39 H1         11.8675    4.6858   -9.9905 H         1 <0>         0.1320
     40 H2         12.7474    3.9487   -7.7912 H         1 <0>         0.1324
     41 H3          9.6350    5.7578  -10.1374 H         1 <0>         0.1328
     42 H4         11.4031    4.2801   -5.7423 H         1 <0>         0.1324
     43 H5          8.2827    6.0940   -8.0945 H         1 <0>         0.1434
     44 H6          0.4123   -2.1163    0.6268 H         1 <0>         0.0405
     45 H7          1.6748   -2.8696    1.5969 H         1 <0>         0.0421
     46 H8          3.4275   -1.7101    0.3405 H         1 <0>         0.0362
     47 H9          2.3604   -2.5373   -0.7887 H         1 <0>         0.0439
     48 H10         0.5662   -0.9575    2.7741 H         1 <0>         0.0350
     49 H11         2.2989   -0.7161    2.5809 H         1 <0>         0.0428
     50 H12         2.9155   -0.2268   -1.5465 H         1 <0>         0.0663
     51 H13         1.1844   -0.4667   -1.3229 H         1 <0>         0.0466
     52 H14         0.0677    0.5160    0.8929 H         1 <0>         0.0493
     53 H15         1.1117    1.3607    2.0335 H         1 <0>         0.0520
     54 H16         3.3373    3.4571   -4.0075 H         1 <0>         0.0915
     55 H17         3.3792    2.2031   -2.7476 H         1 <0>         0.0601
     56 H18         7.6671    3.4155   -7.2730 H         1 <0>         0.0688
     57 H19         6.8138    4.9067   -6.9355 H         1 <0>         0.0630
     58 H20         4.9425    0.8939   -3.9800 H         1 <0>         0.0807
     59 H21         4.0270    1.5868   -5.3200 H         1 <0>         0.0380
     60 H22         4.9696    3.8594   -6.1912 H         1 <0>         0.0484
     61 H23         5.6526    2.4206   -6.9455 H         1 <0>         0.0697
     62 H24         4.8809    4.5388   -2.5517 H         1 <0>         0.0843
     63 H25         1.7819    1.7076   -0.3790 H         1 <0>         0.0831
     64 H26         9.5913    5.5668   -4.6874 H         1 <0>         0.0704
     65 H27         8.3224    6.3045   -5.6440 H         1 <0>         0.0718
     66 H28         5.2579    4.9142    2.6804 H         1 <0>         0.0606
     67 H29         5.4809    5.7546    1.1500 H         1 <0>         0.0458
     68 H30         7.2000    6.0392    3.6534 H         1 <0>         0.0375
     69 H31         7.5258    6.8807    2.1417 H         1 <0>         0.0392
     70 H32         7.4599    3.7926    2.4354 H         1 <0>         0.0606
     71 H33         7.7645    4.6634    0.9347 H         1 <0>         0.0579
     72 H34         5.2908    8.0386    2.3228 H         1 <0>         0.0571
     73 H35         6.3225    8.3806    3.7198 H         1 <0>         0.0503
     74 H36         7.0421    2.3587    0.4881 H         1 <0>         0.0993
     75 H37         8.4943    2.1340   -5.1738 H         1 <0>         0.3700
     76 H38         9.7264    3.1786   -4.5069 H         1 <0>         0.3660
     77 H39         4.0028    7.6695    4.3608 H         1 <0>         0.3465
     78 H40         4.9421    6.2118    4.5770 H         1 <0>         0.3446
     79 H41         4.0528    0.3153    0.8455 H         1 <0>         0.3148
     80 H42         5.4441    4.5531   -0.5557 H         1 <0>         0.3220
@<TRIPOS>BOND
     1    1    2 ar
     2    1    3 ar
     3    2    4 ar
     4    3    5 ar
     5    4    6 ar
     6    5    6 ar
     7    6   23 1
     8    7   22 1
     9    7   29 am
    10    7   35 2
    11    8    9 1
    12    8   28 1
    13    8   36 2
    14    9   33 am
    15    9   37 2
    16   10   20 1
    17   10   34 am
    18   10   38 2
    19   11   12 1
    20   11   13 1
    21   12   14 1
    22   13   15 1
    23   14   21 1
    24   15   21 1
    25   16   18 1
    26   16   20 1
    27   17   19 1
    28   17   22 1
    29   18   30 1
    30   19   30 1
    31   20   29 1
    32   21   33 1
    33   22   23 1
    34   22   31 1
    35   24   25 1
    36   24   26 1
    37   25   27 1
    38   26   28 1
    39   27   32 1
    40   28   34 1
    41   29   30 1
    42    1   39 1
    43    2   40 1
    44    3   41 1
    45    4   42 1
    46    5   43 1
    47   11   44 1
    48   11   45 1
    49   12   46 1
    50   12   47 1
    51   13   48 1
    52   13   49 1
    53   14   50 1
    54   14   51 1
    55   15   52 1
    56   15   53 1
    57   16   54 1
    58   16   55 1
    59   17   56 1
    60   17   57 1
    61   18   58 1
    62   18   59 1
    63   19   60 1
    64   19   61 1
    65   20   62 1
    66   21   63 1
    67   23   64 1
    68   23   65 1
    69   24   66 1
    70   24   67 1
    71   25   68 1
    72   25   69 1
    73   26   70 1
    74   26   71 1
    75   27   72 1
    76   27   73 1
    77   28   74 1
    78   31   75 1
    79   31   76 1
    80   32   77 1
    81   32   78 1
    82   33   79 1
    83   34   80 1
@<TRIPOS>MOLECULE
1a46_ligand_77
   80    83     0     0     0
SMALL
USER_CHARGES

mmff94s_NoEstat = 82.66
@<TRIPOS>ATOM
      1 C1         -5.0984    1.0095  -15.6042 C.ar      1 <0>        -0.1300
      2 C2         -3.7796    1.4634  -15.6236 C.ar      1 <0>        -0.1323
      3 C3         -5.8613    1.1325  -14.4430 C.ar      1 <0>        -0.1309
      4 C4         -3.2237    2.0403  -14.4818 C.ar      1 <0>        -0.1275
      5 C5         -5.3054    1.7094  -13.3011 C.ar      1 <0>        -0.1272
      6 C6         -3.9903    2.1595  -13.3280 C.ar      1 <0>        -0.0843
      7 C7         -2.1082    2.3543   -9.9549 C.2       1 <0>         0.6709
      8 C8          2.7796    3.2097   -6.1637 C.2       1 <0>         0.4867
      9 C9          2.0233    2.5606   -5.0416 C.2       1 <0>         0.5883
     10 C10         0.2181    1.9581   -7.7739 C.2       1 <0>         0.6572
     11 C11         1.9645   -1.8404   -1.9043 C.3       1 <0>        -0.0802
     12 C12         1.2252   -1.9940   -3.2304 C.3       1 <0>        -0.0765
     13 C13         1.9764   -0.3897   -1.4308 C.3       1 <0>        -0.0774
     14 C14         1.7870   -1.0593   -4.3004 C.3       1 <0>        -0.0953
     15 C15         2.5397    0.5467   -2.4984 C.3       1 <0>        -0.0906
     16 C16        -1.6037    0.5018   -6.8541 C.3       1 <0>        -0.0871
     17 C17        -3.7434    0.6334  -10.8151 C.3       1 <0>        -0.0716
     18 C18        -1.6334   -0.6036   -7.9078 C.3       1 <0>         0.1333
     19 C19        -3.3867   -0.1439   -9.5363 C.3       1 <0>         0.1246
     20 C20        -1.2590    1.7411   -7.6524 C.3       1 <0>         0.0606
     21 C21         1.7865    0.3978   -3.8249 C.3       1 <0>         0.1012
     22 C22        -2.7218    1.7245  -11.2134 C.3       1 <0>         0.1554
     23 C23        -3.3923    2.7801  -12.0997 C.3       1 <0>        -0.0356
     24 C24         1.4445    5.5921   -8.9731 C.3       1 <0>        -0.0795
     25 C25         1.6370    7.0835   -9.2718 C.3       1 <0>        -0.1203
     26 C26         2.1570    5.1335   -7.6933 C.3       1 <0>        -0.0920
     27 C27         0.9502    7.5360  -10.5601 C.3       1 <0>         0.1502
     28 C28         2.0196    3.6328   -7.4097 C.3       1 <0>         0.0224
     29 N1         -1.7541    1.4338   -8.9807 N.am      1 <0>        -0.3553
     30 N2         -1.9849    0.0592   -9.1756 N.3       1 <0>        -0.4320
     31 N3         -1.5982    1.1378  -11.9581 N.3       1 <0>        -0.9031
     32 N4          1.1922    8.9569  -10.7874 N.3       1 <0>        -0.9068
     33 N5          2.3972    1.2522   -4.8415 N.am      1 <0>        -0.5526
     34 N6          0.6426    3.2153   -7.3763 N.am      1 <0>        -0.5576
     35 O1         -1.9389    3.5681   -9.8411 O.2       1 <0>        -0.6710
     36 O2          3.9949    3.2835   -6.0334 O.2       1 <0>        -0.4901
     37 O3          1.1778    3.2234   -4.4630 O.2       1 <0>        -0.5902
     38 O4          0.9290    1.0536   -8.1959 O.2       1 <0>        -0.5833
     39 H1         -5.5312    0.5602  -16.4933 H         1 <0>         0.1320
     40 H2         -3.1856    1.3675  -16.5278 H         1 <0>         0.1324
     41 H3         -6.8881    0.7789  -14.4280 H         1 <0>         0.1328
     42 H4         -2.1954    2.3911  -14.5062 H         1 <0>         0.1324
     43 H5         -5.9074    1.8011  -12.4009 H         1 <0>         0.1434
     44 H6          1.4927   -2.4726   -1.1437 H         1 <0>         0.0405
     45 H7          2.9964   -2.1943   -2.0196 H         1 <0>         0.0421
     46 H8          1.2964   -3.0321   -3.5740 H         1 <0>         0.0362
     47 H9          0.1599   -1.7786   -3.0820 H         1 <0>         0.0439
     48 H10         0.9554   -0.0796   -1.1762 H         1 <0>         0.0350
     49 H11         2.5731   -0.3059   -0.5155 H         1 <0>         0.0428
     50 H12         2.8086   -1.3703   -4.5560 H         1 <0>         0.0663
     51 H13         1.1952   -1.1537   -5.2190 H         1 <0>         0.0466
     52 H14         2.4782    1.5839   -2.1473 H         1 <0>         0.0493
     53 H15         3.6062    0.3314   -2.6462 H         1 <0>         0.0520
     54 H16        -2.6044    0.6122   -6.4185 H         1 <0>         0.0915
     55 H17        -0.8961    0.2875   -6.0474 H         1 <0>         0.0601
     56 H18        -3.8703   -0.0725  -11.6472 H         1 <0>         0.0688
     57 H19        -4.7294    1.0931  -10.6627 H         1 <0>         0.0630
     58 H20        -0.6289   -1.0307   -8.0140 H         1 <0>         0.0807
     59 H21        -2.3061   -1.4224   -7.6298 H         1 <0>         0.0380
     60 H22        -4.0515    0.1805   -8.7237 H         1 <0>         0.0484
     61 H23        -3.5864   -1.2093   -9.7025 H         1 <0>         0.0697
     62 H24        -1.7157    2.6547   -7.2615 H         1 <0>         0.0843
     63 H25         0.7550    0.7494   -3.7073 H         1 <0>         0.0831
     64 H26        -2.6520    3.5331  -12.3759 H         1 <0>         0.0704
     65 H27        -4.1617    3.2932  -11.5198 H         1 <0>         0.0718
     66 H28         0.3683    5.4079   -8.8774 H         1 <0>         0.0606
     67 H29         1.7918    5.0040   -9.8306 H         1 <0>         0.0458
     68 H30         1.2300    7.6523   -8.4256 H         1 <0>         0.0375
     69 H31         2.7093    7.3123   -9.3176 H         1 <0>         0.0392
     70 H32         1.7604    5.7005   -6.8419 H         1 <0>         0.0606
     71 H33         3.2243    5.3739   -7.7660 H         1 <0>         0.0579
     72 H34        -0.1287    7.3572  -10.4981 H         1 <0>         0.0571
     73 H35         1.3345    6.9786  -11.4193 H         1 <0>         0.0503
     74 H36         2.4714    3.0747   -8.2388 H         1 <0>         0.0993
     75 H37        -1.2936    0.2294  -11.6949 H         1 <0>         0.3700
     76 H38        -1.0669    1.7403  -12.5430 H         1 <0>         0.3660
     77 H39         0.7014    9.4044  -11.5317 H         1 <0>         0.3465
     78 H40         1.9755    9.3785  -10.3359 H         1 <0>         0.3446
     79 H41         3.1304    0.8623   -5.4263 H         1 <0>         0.3148
     80 H42        -0.0552    3.8781   -7.0434 H         1 <0>         0.3220
@<TRIPOS>BOND
     1    1    2 ar
     2    1    3 ar
     3    2    4 ar
     4    3    5 ar
     5    4    6 ar
     6    5    6 ar
     7    6   23 1
     8    7   22 1
     9    7   29 am
    10    7   35 2
    11    8    9 1
    12    8   28 1
    13    8   36 2
    14    9   33 am
    15    9   37 2
    16   10   20 1
    17   10   34 am
    18   10   38 2
    19   11   12 1
    20   11   13 1
    21   12   14 1
    22   13   15 1
    23   14   21 1
    24   15   21 1
    25   16   18 1
    26   16   20 1
    27   17   19 1
    28   17   22 1
    29   18   30 1
    30   19   30 1
    31   20   29 1
    32   21   33 1
    33   22   23 1
    34   22   31 1
    35   24   25 1
    36   24   26 1
    37   25   27 1
    38   26   28 1
    39   27   32 1
    40   28   34 1
    41   29   30 1
    42    1   39 1
    43    2   40 1
    44    3   41 1
    45    4   42 1
    46    5   43 1
    47   11   44 1
    48   11   45 1
    49   12   46 1
    50   12   47 1
    51   13   48 1
    52   13   49 1
    53   14   50 1
    54   14   51 1
    55   15   52 1
    56   15   53 1
    57   16   54 1
    58   16   55 1
    59   17   56 1
    60   17   57 1
    61   18   58 1
    62   18   59 1
    63   19   60 1
    64   19   61 1
    65   20   62 1
    66   21   63 1
    67   23   64 1
    68   23   65 1
    69   24   66 1
    70   24   67 1
    71   25   68 1
    72   25   69 1
    73   26   70 1
    74   26   71 1
    75   27   72 1
    76   27   73 1
    77   28   74 1
    78   31   75 1
    79   31   76 1
    80   32   77 1
    81   32   78 1
    82   33   79 1
    83   34   80 1
@<TRIPOS>MOLECULE
1a46_ligand_78
   80    83     0     0     0
SMALL
USER_CHARGES

mmff94s_NoEstat = 82.67
@<TRIPOS>ATOM
      1 C1          9.0003   12.0144   -5.4225 C.ar      1 <0>        -0.1300
      2 C2          9.4537   11.5665   -4.1818 C.ar      1 <0>        -0.1323
      3 C3          7.8120   11.5127   -5.9535 C.ar      1 <0>        -0.1309
      4 C4          8.7189   10.6167   -3.4722 C.ar      1 <0>        -0.1275
      5 C5          7.0772   10.5629   -5.2439 C.ar      1 <0>        -0.1272
      6 C6          7.5355   10.1211   -4.0078 C.ar      1 <0>        -0.0843
      7 C7          6.3757    6.6257   -2.8269 C.2       1 <0>         0.6709
      8 C8          5.2358    2.3798    1.5634 C.2       1 <0>         0.4867
      9 C9          4.0737    1.7586    0.8450 C.2       1 <0>         0.5883
     10 C10         6.5256    3.6321   -1.6689 C.2       1 <0>         0.6572
     11 C11         4.0644   -3.1378    0.1954 C.3       1 <0>        -0.0802
     12 C12         4.9349   -2.3079   -0.7445 C.3       1 <0>        -0.0765
     13 C13         3.3449   -2.2675    1.2224 C.3       1 <0>        -0.0774
     14 C14         4.1346   -1.1879   -1.4107 C.3       1 <0>        -0.0953
     15 C15         2.5480   -1.1477    0.5515 C.3       1 <0>        -0.0906
     16 C16         5.8400    3.2307   -4.0468 C.3       1 <0>        -0.0871
     17 C17         7.0291    7.4385   -5.1265 C.3       1 <0>        -0.0716
     18 C18         7.1120    3.6562   -4.7776 C.3       1 <0>         0.1333
     19 C19         6.8955    5.9616   -5.5361 C.3       1 <0>         0.1246
     20 C20         5.7868    4.1659   -2.8575 C.3       1 <0>         0.0606
     21 C21         3.4011   -0.2972   -0.3991 C.3       1 <0>         0.1012
     22 C22         7.1815    7.6752   -3.6055 C.3       1 <0>         0.1554
     23 C23         6.7451    9.0995   -3.2444 C.3       1 <0>        -0.0356
     24 C24         8.0800    4.9598    0.7851 C.3       1 <0>        -0.0795
     25 C25         8.7880    6.0338    1.6192 C.3       1 <0>        -0.1203
     26 C26         6.9719    4.2276    1.5544 C.3       1 <0>        -0.0920
     27 C27         9.9095    6.7454    0.8629 C.3       1 <0>         0.1502
     28 C28         6.2906    3.1130    0.7514 C.3       1 <0>         0.0224
     29 N1          6.5101    5.3360   -3.3173 N.am      1 <0>        -0.3553
     30 N2          7.3084    5.0783   -4.4472 N.3       1 <0>        -0.4320
     31 N3          8.5804    7.4980   -3.1893 N.3       1 <0>        -0.9031
     32 N4         10.5470    7.7366    1.7233 N.3       1 <0>        -0.9068
     33 N5          4.3625    0.5037    0.3619 N.am      1 <0>        -0.5526
     34 N6          5.7762    3.5917   -0.5046 N.am      1 <0>        -0.5576
     35 O1          5.6876    6.9159   -1.8485 O.2       1 <0>        -0.6710
     36 O2          5.3022    2.1819    2.7699 O.2       1 <0>        -0.4901
     37 O3          3.0463    2.4099    0.7491 O.2       1 <0>        -0.5902
     38 O4          7.6924    3.2783   -1.7917 O.2       1 <0>        -0.5833
     39 H1          9.5724   12.7539   -5.9752 H         1 <0>         0.1320
     40 H2         10.3789   11.9573   -3.7685 H         1 <0>         0.1324
     41 H3          7.4591   11.8615   -6.9197 H         1 <0>         0.1328
     42 H4          9.0800   10.2736   -2.5062 H         1 <0>         0.1324
     43 H5          6.1526   10.1776   -5.6655 H         1 <0>         0.1434
     44 H6          3.3227   -3.6924   -0.3927 H         1 <0>         0.0405
     45 H7          4.6827   -3.8816    0.7106 H         1 <0>         0.0421
     46 H8          5.7747   -1.8806   -0.1833 H         1 <0>         0.0362
     47 H9          5.3667   -2.9577   -1.5143 H         1 <0>         0.0439
     48 H10         2.6703   -2.8890    1.8223 H         1 <0>         0.0350
     49 H11         4.0784   -1.8371    1.9148 H         1 <0>         0.0428
     50 H12         4.8088   -0.5817   -2.0279 H         1 <0>         0.0663
     51 H13         3.3981   -1.6353   -2.0902 H         1 <0>         0.0466
     52 H14         1.7203   -1.5929   -0.0152 H         1 <0>         0.0493
     53 H15         2.0985   -0.5129    1.3247 H         1 <0>         0.0520
     54 H16         4.9736    3.4114   -4.6951 H         1 <0>         0.0915
     55 H17         5.8531    2.1713   -3.7729 H         1 <0>         0.0601
     56 H18         7.8805    7.8879   -5.6555 H         1 <0>         0.0688
     57 H19         6.1391    7.9685   -5.4921 H         1 <0>         0.0630
     58 H20         7.9647    3.0932   -4.3794 H         1 <0>         0.0807
     59 H21         7.0607    3.4497   -5.8523 H         1 <0>         0.0380
     60 H22         5.8545    5.7643   -5.8276 H         1 <0>         0.0484
     61 H23         7.5124    5.7838   -6.4252 H         1 <0>         0.0697
     62 H24         4.7698    4.4250   -2.5496 H         1 <0>         0.0843
     63 H25         2.7649    0.4200   -0.9282 H         1 <0>         0.0831
     64 H26         6.8700    9.2469   -2.1701 H         1 <0>         0.0704
     65 H27         5.6795    9.2080   -3.4549 H         1 <0>         0.0718
     66 H28         7.6494    5.4516   -0.0948 H         1 <0>         0.0606
     67 H29         8.8216    4.2418    0.4157 H         1 <0>         0.0458
     68 H30         8.0356    6.7709    1.9287 H         1 <0>         0.0375
     69 H31         9.1825    5.5824    2.5383 H         1 <0>         0.0392
     70 H32         6.2171    4.9575    1.8728 H         1 <0>         0.0606
     71 H33         7.3929    3.7874    2.4660 H         1 <0>         0.0579
     72 H34         9.5108    7.2416   -0.0285 H         1 <0>         0.0571
     73 H35        10.6706    6.0303    0.5375 H         1 <0>         0.0503
     74 H36         7.0421    2.3587    0.4881 H         1 <0>         0.0993
     75 H37         9.1142    6.7979   -3.6499 H         1 <0>         0.3700
     76 H38         8.8693    7.9327   -2.3437 H         1 <0>         0.3660
     77 H39        11.2163    8.3531    1.3147 H         1 <0>         0.3465
     78 H40        10.4498    7.6340    2.7108 H         1 <0>         0.3446
     79 H41         5.2837    0.1150    0.5408 H         1 <0>         0.3148
     80 H42         4.8120    3.9176   -0.5391 H         1 <0>         0.3220
@<TRIPOS>BOND
     1    1    2 ar
     2    1    3 ar
     3    2    4 ar
     4    3    5 ar
     5    4    6 ar
     6    5    6 ar
     7    6   23 1
     8    7   22 1
     9    7   29 am
    10    7   35 2
    11    8    9 1
    12    8   28 1
    13    8   36 2
    14    9   33 am
    15    9   37 2
    16   10   20 1
    17   10   34 am
    18   10   38 2
    19   11   12 1
    20   11   13 1
    21   12   14 1
    22   13   15 1
    23   14   21 1
    24   15   21 1
    25   16   18 1
    26   16   20 1
    27   17   19 1
    28   17   22 1
    29   18   30 1
    30   19   30 1
    31   20   29 1
    32   21   33 1
    33   22   23 1
    34   22   31 1
    35   24   25 1
    36   24   26 1
    37   25   27 1
    38   26   28 1
    39   27   32 1
    40   28   34 1
    41   29   30 1
    42    1   39 1
    43    2   40 1
    44    3   41 1
    45    4   42 1
    46    5   43 1
    47   11   44 1
    48   11   45 1
    49   12   46 1
    50   12   47 1
    51   13   48 1
    52   13   49 1
    53   14   50 1
    54   14   51 1
    55   15   52 1
    56   15   53 1
    57   16   54 1
    58   16   55 1
    59   17   56 1
    60   17   57 1
    61   18   58 1
    62   18   59 1
    63   19   60 1
    64   19   61 1
    65   20   62 1
    66   21   63 1
    67   23   64 1
    68   23   65 1
    69   24   66 1
    70   24   67 1
    71   25   68 1
    72   25   69 1
    73   26   70 1
    74   26   71 1
    75   27   72 1
    76   27   73 1
    77   28   74 1
    78   31   75 1
    79   31   76 1
    80   32   77 1
    81   32   78 1
    82   33   79 1
    83   34   80 1
@<TRIPOS>MOLECULE
1a46_ligand_79
   80    83     0     0     0
SMALL
USER_CHARGES

mmff94s_NoEstat = 82.70
@<TRIPOS>ATOM
      1 C1         11.2307    8.4980   -6.9074 C.ar      1 <0>        -0.1300
      2 C2         11.6037    8.0134   -5.6538 C.ar      1 <0>        -0.1323
      3 C3          9.8807    8.5885   -7.2468 C.ar      1 <0>        -0.1309
      4 C4         10.6268    7.6193   -4.7395 C.ar      1 <0>        -0.1275
      5 C5          8.9038    8.1943   -6.3325 C.ar      1 <0>        -0.1272
      6 C6          9.2832    7.7123   -5.0848 C.ar      1 <0>        -0.0843
      7 C7          6.8112    5.3648   -3.2584 C.2       1 <0>         0.6709
      8 C8          5.2358    2.3798    1.5634 C.2       1 <0>         0.4867
      9 C9          3.8230    2.3549    1.0577 C.2       1 <0>         0.5883
     10 C10         5.7098    2.8119   -1.6475 C.2       1 <0>         0.6572
     11 C11         1.4181    6.7678    0.8940 C.3       1 <0>        -0.0802
     12 C12         1.4560    5.8610    2.1213 C.3       1 <0>        -0.0765
     13 C13         2.2461    6.2031   -0.2573 C.3       1 <0>        -0.0774
     14 C14         1.0454    4.4289    1.7758 C.3       1 <0>        -0.0953
     15 C15         1.8333    4.7703   -0.5974 C.3       1 <0>        -0.0906
     16 C16         4.5614    2.5584   -3.8616 C.3       1 <0>        -0.0871
     17 C17         7.4096    5.5196   -5.7065 C.3       1 <0>        -0.0716
     18 C18         5.7552    2.2338   -4.7574 C.3       1 <0>         0.1333
     19 C19         6.5359    4.2626   -5.8584 C.3       1 <0>         0.1246
     20 C20         5.1372    3.5153   -2.8394 C.3       1 <0>         0.0606
     21 C21         1.8637    3.8371    0.6204 C.3       1 <0>         0.1012
     22 C22         7.8862    5.8039   -4.2626 C.3       1 <0>         0.1554
     23 C23         8.2324    7.2883   -4.1013 C.3       1 <0>        -0.0356
     24 C24         6.0158    5.3379    2.0114 C.3       1 <0>        -0.0795
     25 C25         6.7209    6.4716    2.7653 C.3       1 <0>        -0.1203
     26 C26         6.9719    4.2276    1.5544 C.3       1 <0>        -0.0920
     27 C27         5.7742    7.5909    3.1979 C.3       1 <0>         0.1502
     28 C28         6.2906    3.1130    0.7514 C.3       1 <0>         0.0224
     29 N1          6.2461    4.1312   -3.5428 N.am      1 <0>        -0.3553
     30 N2          6.6457    3.4048   -4.6800 N.3       1 <0>        -0.4320
     31 N3          9.0821    5.0103   -3.9441 N.3       1 <0>        -0.9031
     32 N4          4.7531    7.0666    4.0988 N.3       1 <0>        -0.9068
     33 N5          3.2455    3.6032    1.0456 N.am      1 <0>        -0.5526
     34 N6          5.7762    3.5917   -0.5046 N.am      1 <0>        -0.5576
     35 O1          6.4995    6.0504   -2.2848 O.2       1 <0>        -0.6710
     36 O2          5.4669    1.7271    2.5732 O.2       1 <0>        -0.4901
     37 O3          3.3466    1.2762    0.7444 O.2       1 <0>        -0.5902
     38 O4          6.0670    1.6440   -1.7490 O.2       1 <0>        -0.5833
     39 H1         11.9913    8.8048   -7.6194 H         1 <0>         0.1320
     40 H2         12.6548    7.9430   -5.3897 H         1 <0>         0.1324
     41 H3          9.5904    8.9656   -8.2230 H         1 <0>         0.1328
     42 H4         10.9268    7.2430   -3.7651 H         1 <0>         0.1324
     43 H5          7.8545    8.2683   -6.6056 H         1 <0>         0.1434
     44 H6          0.3784    6.8907    0.5662 H         1 <0>         0.0405
     45 H7          1.7877    7.7645    1.1601 H         1 <0>         0.0421
     46 H8          2.4665    5.8646    2.5474 H         1 <0>         0.0362
     47 H9          0.7860    6.2585    2.8922 H         1 <0>         0.0439
     48 H10         2.1267    6.8389   -1.1420 H         1 <0>         0.0350
     49 H11         3.3094    6.2291    0.0101 H         1 <0>         0.0428
     50 H12         1.1447    3.8004    2.6691 H         1 <0>         0.0663
     51 H13        -0.0166    4.4224    1.4992 H         1 <0>         0.0466
     52 H14         0.8166    4.7834   -1.0104 H         1 <0>         0.0493
     53 H15         2.4912    4.3837   -1.3851 H         1 <0>         0.0520
     54 H16         3.7944    3.0721   -4.4543 H         1 <0>         0.0915
     55 H17         4.1162    1.6608   -3.4217 H         1 <0>         0.0601
     56 H18         8.2801    5.4412   -6.3721 H         1 <0>         0.0688
     57 H19         6.8297    6.3763   -6.0759 H         1 <0>         0.0630
     58 H20         6.2922    1.3700   -4.3474 H         1 <0>         0.0807
     59 H21         5.4490    1.9715   -5.7762 H         1 <0>         0.0380
     60 H22         5.4939    4.5694   -6.0242 H         1 <0>         0.0484
     61 H23         6.8523    3.7181   -6.7562 H         1 <0>         0.0697
     62 H24         4.4225    4.2667   -2.4920 H         1 <0>         0.0843
     63 H25         1.4635    2.8554    0.3463 H         1 <0>         0.0831
     64 H26         8.5747    7.4635   -3.0797 H         1 <0>         0.0704
     65 H27         7.3253    7.8806   -4.2350 H         1 <0>         0.0718
     66 H28         5.2579    4.9142    2.6804 H         1 <0>         0.0606
     67 H29         5.4809    5.7546    1.1500 H         1 <0>         0.0458
     68 H30         7.2000    6.0392    3.6534 H         1 <0>         0.0375
     69 H31         7.5258    6.8807    2.1417 H         1 <0>         0.0392
     70 H32         7.4599    3.7926    2.4354 H         1 <0>         0.0606
     71 H33         7.7645    4.6634    0.9347 H         1 <0>         0.0579
     72 H34         5.2908    8.0386    2.3228 H         1 <0>         0.0571
     73 H35         6.3225    8.3806    3.7198 H         1 <0>         0.0503
     74 H36         7.0421    2.3587    0.4881 H         1 <0>         0.0993
     75 H37         9.1461    4.0964   -4.3289 H         1 <0>         0.3700
     76 H38         9.6671    5.3316   -3.2079 H         1 <0>         0.3660
     77 H39         4.0028    7.6695    4.3608 H         1 <0>         0.3465
     78 H40         4.9421    6.2118    4.5770 H         1 <0>         0.3446
     79 H41         3.8022    4.3983    1.3448 H         1 <0>         0.3148
     80 H42         5.4441    4.5531   -0.5557 H         1 <0>         0.3220
@<TRIPOS>BOND
     1    1    2 ar
     2    1    3 ar
     3    2    4 ar
     4    3    5 ar
     5    4    6 ar
     6    5    6 ar
     7    6   23 1
     8    7   22 1
     9    7   29 am
    10    7   35 2
    11    8    9 1
    12    8   28 1
    13    8   36 2
    14    9   33 am
    15    9   37 2
    16   10   20 1
    17   10   34 am
    18   10   38 2
    19   11   12 1
    20   11   13 1
    21   12   14 1
    22   13   15 1
    23   14   21 1
    24   15   21 1
    25   16   18 1
    26   16   20 1
    27   17   19 1
    28   17   22 1
    29   18   30 1
    30   19   30 1
    31   20   29 1
    32   21   33 1
    33   22   23 1
    34   22   31 1
    35   24   25 1
    36   24   26 1
    37   25   27 1
    38   26   28 1
    39   27   32 1
    40   28   34 1
    41   29   30 1
    42    1   39 1
    43    2   40 1
    44    3   41 1
    45    4   42 1
    46    5   43 1
    47   11   44 1
    48   11   45 1
    49   12   46 1
    50   12   47 1
    51   13   48 1
    52   13   49 1
    53   14   50 1
    54   14   51 1
    55   15   52 1
    56   15   53 1
    57   16   54 1
    58   16   55 1
    59   17   56 1
    60   17   57 1
    61   18   58 1
    62   18   59 1
    63   19   60 1
    64   19   61 1
    65   20   62 1
    66   21   63 1
    67   23   64 1
    68   23   65 1
    69   24   66 1
    70   24   67 1
    71   25   68 1
    72   25   69 1
    73   26   70 1
    74   26   71 1
    75   27   72 1
    76   27   73 1
    77   28   74 1
    78   31   75 1
    79   31   76 1
    80   32   77 1
    81   32   78 1
    82   33   79 1
    83   34   80 1
@<TRIPOS>MOLECULE
1a46_ligand_80
   80    83     0     0     0
SMALL
USER_CHARGES

mmff94s_NoEstat = 82.74
@<TRIPOS>ATOM
      1 C1         11.1945    5.3647   -9.7731 C.ar      1 <0>        -0.1300
      2 C2         11.8337    5.1154   -8.5586 C.ar      1 <0>        -0.1323
      3 C3          9.8873    5.8513   -9.7863 C.ar      1 <0>        -0.1309
      4 C4         11.1656    5.3526   -7.3573 C.ar      1 <0>        -0.1275
      5 C5          9.2192    6.0884   -8.5850 C.ar      1 <0>        -0.1272
      6 C6          9.8628    5.8375   -7.3783 C.ar      1 <0>        -0.0843
      7 C7          7.6425    5.1042   -4.2977 C.2       1 <0>         0.6709
      8 C8          5.2358    2.3798    1.5634 C.2       1 <0>         0.4867
      9 C9          3.8230    2.3549    1.0577 C.2       1 <0>         0.5883
     10 C10         6.5256    3.6321   -1.6689 C.2       1 <0>         0.6572
     11 C11         0.1943    2.5042    4.4055 C.3       1 <0>        -0.0802
     12 C12         0.8241    1.3237    3.6709 C.3       1 <0>        -0.0765
     13 C13         0.8490    3.8286    4.0220 C.3       1 <0>        -0.0774
     14 C14         0.8252    1.5389    2.1568 C.3       1 <0>        -0.0953
     15 C15         0.8496    4.0381    2.5071 C.3       1 <0>        -0.0906
     16 C16         4.6595    3.2577   -3.3009 C.3       1 <0>        -0.0871
     17 C17         7.3760    4.3986   -6.7074 C.3       1 <0>        -0.0716
     18 C18         5.3367    2.3027   -4.2819 C.3       1 <0>         0.1333
     19 C19         6.2012    3.5529   -6.1864 C.3       1 <0>         0.1246
     20 C20         5.7868    4.1659   -2.8575 C.3       1 <0>         0.0606
     21 C21         1.4786    2.8646    1.7442 C.3       1 <0>         0.1012
     22 C22         8.3797    4.8486   -5.6198 C.3       1 <0>         0.1554
     23 C23         9.1441    6.0926   -6.0861 C.3       1 <0>        -0.0356
     24 C24         6.0158    5.3379    2.0114 C.3       1 <0>        -0.0795
     25 C25         6.7209    6.4716    2.7653 C.3       1 <0>        -0.1203
     26 C26         6.9719    4.2276    1.5544 C.3       1 <0>        -0.0920
     27 C27         5.7742    7.5909    3.1979 C.3       1 <0>         0.1502
     28 C28         6.2906    3.1130    0.7514 C.3       1 <0>         0.0224
     29 N1          6.7058    4.1331   -3.9791 N.am      1 <0>        -0.3553
     30 N2          6.4777    3.0462   -4.8435 N.3       1 <0>        -0.4320
     31 N3          9.3531    3.7833   -5.3380 N.3       1 <0>        -0.9031
     32 N4          6.5168    8.6391    3.8900 N.3       1 <0>        -0.9068
     33 N5          2.9218    2.8162    1.9889 N.am      1 <0>        -0.5526
     34 N6          5.7762    3.5917   -0.5046 N.am      1 <0>        -0.5576
     35 O1          7.8821    6.0807   -3.5877 O.2       1 <0>        -0.6710
     36 O2          5.4669    1.7271    2.5732 O.2       1 <0>        -0.4901
     37 O3          3.6258    1.9273   -0.0679 O.2       1 <0>        -0.5902
     38 O4          7.6924    3.2783   -1.7917 O.2       1 <0>        -0.5833
     39 H1         11.7147    5.1800  -10.7084 H         1 <0>         0.1320
     40 H2         12.8515    4.7366   -8.5485 H         1 <0>         0.1324
     41 H3          9.3897    6.0452  -10.7320 H         1 <0>         0.1328
     42 H4         11.6716    5.1554   -6.4159 H         1 <0>         0.1324
     43 H5          8.2009    6.4675   -8.6050 H         1 <0>         0.1434
     44 H6         -0.8764    2.5478    4.1705 H         1 <0>         0.0405
     45 H7          0.2765    2.3517    5.4876 H         1 <0>         0.0421
     46 H8          1.8516    1.1783    4.0256 H         1 <0>         0.0362
     47 H9          0.2739    0.4065    3.9103 H         1 <0>         0.0439
     48 H10         0.3166    4.6552    4.5063 H         1 <0>         0.0350
     49 H11         1.8783    3.8505    4.3999 H         1 <0>         0.0428
     50 H12         1.3389    0.6988    1.6740 H         1 <0>         0.0663
     51 H13        -0.2116    1.5264    1.7970 H         1 <0>         0.0466
     52 H14        -0.1857    4.1693    2.1674 H         1 <0>         0.0493
     53 H15         1.3811    4.9684    2.2727 H         1 <0>         0.0520
     54 H16         3.9023    3.8458   -3.8340 H         1 <0>         0.0915
     55 H17         4.1709    2.7289   -2.4768 H         1 <0>         0.0601
     56 H18         7.9078    3.8408   -7.4902 H         1 <0>         0.0688
     57 H19         6.9559    5.2827   -7.2061 H         1 <0>         0.0630
     58 H20         5.7303    1.4383   -3.7336 H         1 <0>         0.0807
     59 H21         4.6390    1.9190   -5.0344 H         1 <0>         0.0380
     60 H22         5.2889    4.1652   -6.1941 H         1 <0>         0.0484
     61 H23         6.0298    2.7205   -6.8794 H         1 <0>         0.0697
     62 H24         5.4651    5.1881   -2.6391 H         1 <0>         0.0843
     63 H25         1.3617    3.0169    0.6661 H         1 <0>         0.0831
     64 H26         9.8520    6.3858   -5.3087 H         1 <0>         0.0704
     65 H27         8.4405    6.9195   -6.1990 H         1 <0>         0.0718
     66 H28         5.2579    4.9142    2.6804 H         1 <0>         0.0606
     67 H29         5.4809    5.7546    1.1500 H         1 <0>         0.0458
     68 H30         7.2000    6.0392    3.6534 H         1 <0>         0.0375
     69 H31         7.5258    6.8807    2.1417 H         1 <0>         0.0392
     70 H32         7.4599    3.7926    2.4354 H         1 <0>         0.0606
     71 H33         7.7645    4.6634    0.9347 H         1 <0>         0.0579
     72 H34         4.9986    7.1962    3.8630 H         1 <0>         0.0571
     73 H35         5.2784    8.0349    2.3297 H         1 <0>         0.0503
     74 H36         7.0421    2.3587    0.4881 H         1 <0>         0.0993
     75 H37         9.0331    2.8434   -5.3754 H         1 <0>         0.3700
     76 H38        10.2196    4.0460   -4.9287 H         1 <0>         0.3660
     77 H39         5.9996    9.3711    4.3277 H         1 <0>         0.3465
     78 H40         7.4997    8.7018    3.7315 H         1 <0>         0.3446
     79 H41         3.2728    3.1375    2.8861 H         1 <0>         0.3148
     80 H42         4.8120    3.9176   -0.5391 H         1 <0>         0.3220
@<TRIPOS>BOND
     1    1    2 ar
     2    1    3 ar
     3    2    4 ar
     4    3    5 ar
     5    4    6 ar
     6    5    6 ar
     7    6   23 1
     8    7   22 1
     9    7   29 am
    10    7   35 2
    11    8    9 1
    12    8   28 1
    13    8   36 2
    14    9   33 am
    15    9   37 2
    16   10   20 1
    17   10   34 am
    18   10   38 2
    19   11   12 1
    20   11   13 1
    21   12   14 1
    22   13   15 1
    23   14   21 1
    24   15   21 1
    25   16   18 1
    26   16   20 1
    27   17   19 1
    28   17   22 1
    29   18   30 1
    30   19   30 1
    31   20   29 1
    32   21   33 1
    33   22   23 1
    34   22   31 1
    35   24   25 1
    36   24   26 1
    37   25   27 1
    38   26   28 1
    39   27   32 1
    40   28   34 1
    41   29   30 1
    42    1   39 1
    43    2   40 1
    44    3   41 1
    45    4   42 1
    46    5   43 1
    47   11   44 1
    48   11   45 1
    49   12   46 1
    50   12   47 1
    51   13   48 1
    52   13   49 1
    53   14   50 1
    54   14   51 1
    55   15   52 1
    56   15   53 1
    57   16   54 1
    58   16   55 1
    59   17   56 1
    60   17   57 1
    61   18   58 1
    62   18   59 1
    63   19   60 1
    64   19   61 1
    65   20   62 1
    66   21   63 1
    67   23   64 1
    68   23   65 1
    69   24   66 1
    70   24   67 1
    71   25   68 1
    72   25   69 1
    73   26   70 1
    74   26   71 1
    75   27   72 1
    76   27   73 1
    77   28   74 1
    78   31   75 1
    79   31   76 1
    80   32   77 1
    81   32   78 1
    82   33   79 1
    83   34   80 1
@<TRIPOS>MOLECULE
1a46_ligand_81
   80    83     0     0     0
SMALL
USER_CHARGES

mmff94s_NoEstat = 82.76
@<TRIPOS>ATOM
      1 C1          9.3427    1.2226  -10.2936 C.ar      1 <0>        -0.1300
      2 C2          9.9666    0.8172   -9.1138 C.ar      1 <0>        -0.1323
      3 C3          8.4336    2.2805  -10.2739 C.ar      1 <0>        -0.1309
      4 C4          9.6814    1.4695   -7.9143 C.ar      1 <0>        -0.1275
      5 C5          8.1485    2.9328   -9.0744 C.ar      1 <0>        -0.1272
      6 C6          8.7742    2.5231   -7.9024 C.ar      1 <0>        -0.0843
      7 C7          6.9710    3.2795   -4.5657 C.2       1 <0>         0.6709
      8 C8          5.2358    2.3798    1.5634 C.2       1 <0>         0.4867
      9 C9          3.8230    2.3549    1.0577 C.2       1 <0>         0.5883
     10 C10         5.7098    2.8119   -1.6475 C.2       1 <0>         0.6572
     11 C11         0.9283    6.1987    2.1728 C.3       1 <0>        -0.0802
     12 C12         1.0626    4.8284    2.8318 C.3       1 <0>        -0.0765
     13 C13         1.8872    6.3615    0.9964 C.3       1 <0>        -0.0774
     14 C14         0.9098    3.6972    1.8142 C.3       1 <0>        -0.0953
     15 C15         1.7320    5.2267   -0.0170 C.3       1 <0>        -0.0906
     16 C16         3.6624    3.2324   -3.0320 C.3       1 <0>        -0.0871
     17 C17         6.0388    2.5547   -6.7975 C.3       1 <0>        -0.0716
     18 C18         3.6514    1.9752   -3.8994 C.3       1 <0>         0.1333
     19 C19         4.6996    2.4463   -6.0480 C.3       1 <0>         0.1246
     20 C20         5.1372    3.5153   -2.8394 C.3       1 <0>         0.0606
     21 C21         1.8637    3.8371    0.6204 C.3       1 <0>         0.1012
     22 C22         7.2891    2.5653   -5.8869 C.3       1 <0>         0.1554
     23 C23         8.4675    3.2247   -6.6121 C.3       1 <0>        -0.0356
     24 C24         7.6485    3.7409    2.8432 C.3       1 <0>        -0.0795
     25 C25         8.2774    4.8743    3.6620 C.3       1 <0>        -0.1203
     26 C26         6.9719    4.2276    1.5544 C.3       1 <0>        -0.0920
     27 C27         8.9284    4.3945    4.9589 C.3       1 <0>         0.1502
     28 C28         6.2906    3.1130    0.7514 C.3       1 <0>         0.0224
     29 N1          5.7488    2.9259   -4.0152 N.am      1 <0>        -0.3553
     30 N2          4.9069    2.0073   -4.6693 N.3       1 <0>        -0.4320
     31 N3          7.6768    1.1953   -5.5201 N.3       1 <0>        -0.9031
     32 N4          9.4866    5.5266    5.6910 N.3       1 <0>        -0.9068
     33 N5          3.2455    3.6032    1.0456 N.am      1 <0>        -0.5526
     34 N6          5.7762    3.5917   -0.5046 N.am      1 <0>        -0.5576
     35 O1          7.7474    4.0812   -4.0464 O.2       1 <0>        -0.6710
     36 O2          5.4669    1.7271    2.5732 O.2       1 <0>        -0.4901
     37 O3          3.3466    1.2762    0.7444 O.2       1 <0>        -0.5902
     38 O4          6.0670    1.6440   -1.7490 O.2       1 <0>        -0.5833
     39 H1          9.5646    0.7147  -11.2275 H         1 <0>         0.1320
     40 H2         10.6743   -0.0064   -9.1292 H         1 <0>         0.1324
     41 H3          7.9478    2.5960  -11.1926 H         1 <0>         0.1328
     42 H4         10.1723    1.1467   -7.0000 H         1 <0>         0.1324
     43 H5          7.4388    3.7559   -9.0687 H         1 <0>         0.1434
     44 H6         -0.1023    6.3323    1.8214 H         1 <0>         0.0405
     45 H7          1.1162    6.9843    2.9134 H         1 <0>         0.0421
     46 H8          2.0393    4.7542    3.3252 H         1 <0>         0.0362
     47 H9          0.3035    4.7219    3.6152 H         1 <0>         0.0439
     48 H10         1.7025    7.3222    0.5024 H         1 <0>         0.0350
     49 H11         2.9190    6.3892    1.3671 H         1 <0>         0.0428
     50 H12         1.0730    2.7362    2.3169 H         1 <0>         0.0663
     51 H13        -0.1236    3.6910    1.4448 H         1 <0>         0.0466
     52 H14         0.7459    5.3084   -0.4918 H         1 <0>         0.0493
     53 H15         2.4781    5.3493   -0.8115 H         1 <0>         0.0520
     54 H16         3.1996    4.0578   -3.5869 H         1 <0>         0.0915
     55 H17         3.1150    3.0948   -2.0945 H         1 <0>         0.0601
     56 H18         6.1186    1.7328   -7.5220 H         1 <0>         0.0688
     57 H19         6.0134    3.4760   -7.3953 H         1 <0>         0.0630
     58 H20         3.6705    1.0888   -3.2538 H         1 <0>         0.0807
     59 H21         2.7495    1.9066   -4.5175 H         1 <0>         0.0380
     60 H22         4.1937    3.4213   -6.0771 H         1 <0>         0.0484
     61 H23         4.0529    1.7380   -6.5798 H         1 <0>         0.0697
     62 H24         5.3721    4.5807   -2.7630 H         1 <0>         0.0843
     63 H25         1.6435    3.0645   -0.1238 H         1 <0>         0.0831
     64 H26         9.3395    3.2124   -5.9558 H         1 <0>         0.0704
     65 H27         8.2279    4.2735   -6.7972 H         1 <0>         0.0718
     66 H28         8.4445    3.0306    2.5915 H         1 <0>         0.0606
     67 H29         6.9275    3.2007    3.4679 H         1 <0>         0.0458
     68 H30         9.0354    5.3625    3.0356 H         1 <0>         0.0375
     69 H31         7.5157    5.6329    3.8824 H         1 <0>         0.0392
     70 H32         7.7210    4.7221    0.9235 H         1 <0>         0.0606
     71 H33         6.2174    4.9831    1.8035 H         1 <0>         0.0579
     72 H34         9.7251    3.6753    4.7403 H         1 <0>         0.0571
     73 H35         8.1937    3.8977    5.5994 H         1 <0>         0.0503
     74 H36         7.0421    2.3587    0.4881 H         1 <0>         0.0993
     75 H37         6.9507    0.5323   -5.3773 H         1 <0>         0.3700
     76 H38         8.6161    1.0420   -5.2343 H         1 <0>         0.3660
     77 H39        10.0430    5.3371    6.4969 H         1 <0>         0.3465
     78 H40         9.1331    6.4373    5.4892 H         1 <0>         0.3446
     79 H41         3.8022    4.3983    1.3448 H         1 <0>         0.3148
     80 H42         5.4441    4.5531   -0.5557 H         1 <0>         0.3220
@<TRIPOS>BOND
     1    1    2 ar
     2    1    3 ar
     3    2    4 ar
     4    3    5 ar
     5    4    6 ar
     6    5    6 ar
     7    6   23 1
     8    7   22 1
     9    7   29 am
    10    7   35 2
    11    8    9 1
    12    8   28 1
    13    8   36 2
    14    9   33 am
    15    9   37 2
    16   10   20 1
    17   10   34 am
    18   10   38 2
    19   11   12 1
    20   11   13 1
    21   12   14 1
    22   13   15 1
    23   14   21 1
    24   15   21 1
    25   16   18 1
    26   16   20 1
    27   17   19 1
    28   17   22 1
    29   18   30 1
    30   19   30 1
    31   20   29 1
    32   21   33 1
    33   22   23 1
    34   22   31 1
    35   24   25 1
    36   24   26 1
    37   25   27 1
    38   26   28 1
    39   27   32 1
    40   28   34 1
    41   29   30 1
    42    1   39 1
    43    2   40 1
    44    3   41 1
    45    4   42 1
    46    5   43 1
    47   11   44 1
    48   11   45 1
    49   12   46 1
    50   12   47 1
    51   13   48 1
    52   13   49 1
    53   14   50 1
    54   14   51 1
    55   15   52 1
    56   15   53 1
    57   16   54 1
    58   16   55 1
    59   17   56 1
    60   17   57 1
    61   18   58 1
    62   18   59 1
    63   19   60 1
    64   19   61 1
    65   20   62 1
    66   21   63 1
    67   23   64 1
    68   23   65 1
    69   24   66 1
    70   24   67 1
    71   25   68 1
    72   25   69 1
    73   26   70 1
    74   26   71 1
    75   27   72 1
    76   27   73 1
    77   28   74 1
    78   31   75 1
    79   31   76 1
    80   32   77 1
    81   32   78 1
    82   33   79 1
    83   34   80 1
@<TRIPOS>MOLECULE
1a46_ligand_82
   80    83     0     0     0
SMALL
USER_CHARGES

mmff94s_NoEstat = 82.81
@<TRIPOS>ATOM
      1 C1         11.0121    9.2104   -7.9325 C.ar      1 <0>        -0.1300
      2 C2         11.5385    8.8832   -6.6829 C.ar      1 <0>        -0.1323
      3 C3          9.6345    9.1559   -8.1449 C.ar      1 <0>        -0.1309
      4 C4         10.6874    8.5015   -5.6458 C.ar      1 <0>        -0.1275
      5 C5          8.7834    8.7742   -7.1078 C.ar      1 <0>        -0.1272
      6 C6          9.3154    8.4495   -5.8650 C.ar      1 <0>        -0.0843
      7 C7          7.2411    6.0968   -3.6024 C.2       1 <0>         0.6709
      8 C8          5.2358    2.3798    1.5634 C.2       1 <0>         0.4867
      9 C9          4.0737    1.7586    0.8450 C.2       1 <0>         0.5883
     10 C10         6.5256    3.6321   -1.6689 C.2       1 <0>         0.6572
     11 C11        -0.3101    1.8066    3.1204 C.3       1 <0>        -0.0802
     12 C12         0.7521    0.7144    3.0271 C.3       1 <0>        -0.0765
     13 C13         0.1163    3.0793    2.3936 C.3       1 <0>        -0.0774
     14 C14         1.1457    0.4346    1.5761 C.3       1 <0>        -0.0953
     15 C15         0.5110    2.7940    0.9439 C.3       1 <0>        -0.0906
     16 C16         5.2113    3.0694   -3.7284 C.3       1 <0>        -0.0871
     17 C17         7.6012    6.0599   -6.1012 C.3       1 <0>        -0.0716
     18 C18         6.3446    2.7580   -4.7039 C.3       1 <0>         0.1333
     19 C19         6.8355    4.7264   -6.0536 C.3       1 <0>         0.1246
     20 C20         5.7868    4.1659   -2.8575 C.3       1 <0>         0.0606
     21 C21         1.5791    1.6990    0.8223 C.3       1 <0>         0.1012
     22 C22         8.1773    6.5224   -4.7422 C.3       1 <0>         0.1554
     23 C23         8.4000    8.0389   -4.7494 C.3       1 <0>        -0.0356
     24 C24         8.0800    4.9598    0.7851 C.3       1 <0>        -0.0795
     25 C25         8.7880    6.0338    1.6192 C.3       1 <0>        -0.1203
     26 C26         6.9719    4.2276    1.5544 C.3       1 <0>        -0.0920
     27 C27         9.9095    6.7454    0.8629 C.3       1 <0>         0.1502
     28 C28         6.2906    3.1130    0.7514 C.3       1 <0>         0.0224
     29 N1          6.7674    4.7991   -3.7183 N.am      1 <0>        -0.3553
     30 N2          7.1280    4.0001   -4.8193 N.3       1 <0>        -0.4320
     31 N3          9.4643    5.8648   -4.4722 N.3       1 <0>        -0.9031
     32 N4         10.5470    7.7366    1.7233 N.3       1 <0>        -0.9068
     33 N5          2.8617    2.1823    1.3384 N.am      1 <0>        -0.5526
     34 N6          5.7762    3.5917   -0.5046 N.am      1 <0>        -0.5576
     35 O1          6.9567    6.8465   -2.6685 O.2       1 <0>        -0.6710
     36 O2          5.3022    2.1819    2.7699 O.2       1 <0>        -0.4901
     37 O3          4.3127    0.9617   -0.0474 O.2       1 <0>        -0.5902
     38 O4          7.6924    3.2783   -1.7917 O.2       1 <0>        -0.5833
     39 H1         11.6747    9.5075   -8.7400 H         1 <0>         0.1320
     40 H2         12.6111    8.9257   -6.5176 H         1 <0>         0.1324
     41 H3          9.2248    9.4105   -9.1180 H         1 <0>         0.1328
     42 H4         11.1066    8.2484   -4.6756 H         1 <0>         0.1324
     43 H5          7.7115    8.7346   -7.2826 H         1 <0>         0.1434
     44 H6         -1.2478    1.4382    2.6861 H         1 <0>         0.0405
     45 H7         -0.5145    2.0336    4.1728 H         1 <0>         0.0421
     46 H8          1.6374    1.0154    3.6002 H         1 <0>         0.0362
     47 H9          0.3743   -0.2054    3.4883 H         1 <0>         0.0439
     48 H10        -0.7038    3.8062    2.4141 H         1 <0>         0.0350
     49 H11         0.9594    3.5381    2.9241 H         1 <0>         0.0428
     50 H12         1.9510   -0.3097    1.5585 H         1 <0>         0.0663
     51 H13         0.2884   -0.0125    1.0569 H         1 <0>         0.0466
     52 H14        -0.3828    2.4825    0.3884 H         1 <0>         0.0493
     53 H15         0.8670    3.7212    0.4787 H         1 <0>         0.0520
     54 H16         4.3507    3.4578   -4.2870 H         1 <0>         0.0915
     55 H17         4.8908    2.1856   -3.1683 H         1 <0>         0.0601
     56 H18         8.4120    5.9885   -6.8390 H         1 <0>         0.0688
     57 H19         6.9149    6.8257   -6.4876 H         1 <0>         0.0630
     58 H20         6.9926    1.9855   -4.2725 H         1 <0>         0.0807
     59 H21         5.9735    2.3729   -5.6602 H         1 <0>         0.0380
     60 H22         5.7592    4.9288   -6.1435 H         1 <0>         0.0484
     61 H23         7.1185    4.1245   -6.9255 H         1 <0>         0.0697
     62 H24         5.0406    4.8864   -2.5107 H         1 <0>         0.0843
     63 H25         1.7501    1.4622   -0.2331 H         1 <0>         0.0831
     64 H26         8.8151    8.3408   -3.7861 H         1 <0>         0.0704
     65 H27         7.4343    8.5386   -4.8464 H         1 <0>         0.0718
     66 H28         7.6494    5.4516   -0.0948 H         1 <0>         0.0606
     67 H29         8.8216    4.2418    0.4157 H         1 <0>         0.0458
     68 H30         8.0356    6.7709    1.9287 H         1 <0>         0.0375
     69 H31         9.1825    5.5824    2.5383 H         1 <0>         0.0392
     70 H32         6.2171    4.9575    1.8728 H         1 <0>         0.0606
     71 H33         7.3929    3.7874    2.4660 H         1 <0>         0.0579
     72 H34         9.5108    7.2416   -0.0285 H         1 <0>         0.0571
     73 H35        10.6706    6.0303    0.5375 H         1 <0>         0.0503
     74 H36         7.0421    2.3587    0.4881 H         1 <0>         0.0993
     75 H37         9.5764    4.9261   -4.7778 H         1 <0>         0.3700
     76 H38        10.0811    6.3037   -3.8286 H         1 <0>         0.3660
     77 H39        11.2163    8.3531    1.3147 H         1 <0>         0.3465
     78 H40        10.4498    7.6340    2.7108 H         1 <0>         0.3446
     79 H41         2.8559    2.8605    2.0944 H         1 <0>         0.3148
     80 H42         4.8120    3.9176   -0.5391 H         1 <0>         0.3220
@<TRIPOS>BOND
     1    1    2 ar
     2    1    3 ar
     3    2    4 ar
     4    3    5 ar
     5    4    6 ar
     6    5    6 ar
     7    6   23 1
     8    7   22 1
     9    7   29 am
    10    7   35 2
    11    8    9 1
    12    8   28 1
    13    8   36 2
    14    9   33 am
    15    9   37 2
    16   10   20 1
    17   10   34 am
    18   10   38 2
    19   11   12 1
    20   11   13 1
    21   12   14 1
    22   13   15 1
    23   14   21 1
    24   15   21 1
    25   16   18 1
    26   16   20 1
    27   17   19 1
    28   17   22 1
    29   18   30 1
    30   19   30 1
    31   20   29 1
    32   21   33 1
    33   22   23 1
    34   22   31 1
    35   24   25 1
    36   24   26 1
    37   25   27 1
    38   26   28 1
    39   27   32 1
    40   28   34 1
    41   29   30 1
    42    1   39 1
    43    2   40 1
    44    3   41 1
    45    4   42 1
    46    5   43 1
    47   11   44 1
    48   11   45 1
    49   12   46 1
    50   12   47 1
    51   13   48 1
    52   13   49 1
    53   14   50 1
    54   14   51 1
    55   15   52 1
    56   15   53 1
    57   16   54 1
    58   16   55 1
    59   17   56 1
    60   17   57 1
    61   18   58 1
    62   18   59 1
    63   19   60 1
    64   19   61 1
    65   20   62 1
    66   21   63 1
    67   23   64 1
    68   23   65 1
    69   24   66 1
    70   24   67 1
    71   25   68 1
    72   25   69 1
    73   26   70 1
    74   26   71 1
    75   27   72 1
    76   27   73 1
    77   28   74 1
    78   31   75 1
    79   31   76 1
    80   32   77 1
    81   32   78 1
    82   33   79 1
    83   34   80 1
@<TRIPOS>MOLECULE
1a46_ligand_83
   80    83     0     0     0
SMALL
USER_CHARGES

mmff94s_NoEstat = 82.83
@<TRIPOS>ATOM
      1 C1         -6.8775    5.0901  -14.7309 C.ar      1 <0>        -0.1300
      2 C2         -5.5917    5.6294  -14.7709 C.ar      1 <0>        -0.1323
      3 C3         -7.3842    4.5832  -13.5342 C.ar      1 <0>        -0.1309
      4 C4         -4.8126    5.6616  -13.6144 C.ar      1 <0>        -0.1275
      5 C5         -6.6051    4.6154  -12.3777 C.ar      1 <0>        -0.1272
      6 C6         -5.3244    5.1544  -12.4253 C.ar      1 <0>        -0.0843
      7 C7         -2.7863    3.9453   -9.7694 C.2       1 <0>         0.6709
      8 C8          2.7796    3.2097   -6.1637 C.2       1 <0>         0.4867
      9 C9          2.2829    2.0299   -5.3801 C.2       1 <0>         0.5883
     10 C10        -0.0591    2.8141   -8.5012 C.2       1 <0>         0.6572
     11 C11         1.8490   -3.3523   -5.6214 C.3       1 <0>        -0.0802
     12 C12         3.1398   -2.8454   -4.9844 C.3       1 <0>        -0.0765
     13 C13         0.7051   -2.3578   -5.4443 C.3       1 <0>        -0.0774
     14 C14         3.5170   -1.4587   -5.5030 C.3       1 <0>        -0.0953
     15 C15         1.0793   -0.9703   -5.9628 C.3       1 <0>        -0.0906
     16 C16        -1.6498    0.9246   -8.0710 C.3       1 <0>        -0.0871
     17 C17        -4.5618    2.6685  -11.0314 C.3       1 <0>        -0.0716
     18 C18        -1.8952    0.4385   -9.4981 C.3       1 <0>         0.1333
     19 C19        -3.9477    1.4257  -10.3641 C.3       1 <0>         0.1246
     20 C20        -1.4789    2.4202   -8.2321 C.3       1 <0>         0.0606
     21 C21         2.3700   -0.4604   -5.3121 C.3       1 <0>         0.1012
     22 C22        -3.6459    3.9150  -11.0410 C.3       1 <0>         0.1554
     23 C23        -4.4863    5.1891  -11.1812 C.3       1 <0>        -0.0356
     24 C24         1.4445    5.5921   -8.9731 C.3       1 <0>        -0.0795
     25 C25         1.6370    7.0835   -9.2718 C.3       1 <0>        -0.1203
     26 C26         2.1570    5.1335   -7.6933 C.3       1 <0>        -0.0920
     27 C27         0.9502    7.5360  -10.5601 C.3       1 <0>         0.1502
     28 C28         2.0196    3.6328   -7.4097 C.3       1 <0>         0.0224
     29 N1         -2.2374    2.7178   -9.4321 N.am      1 <0>        -0.3553
     30 N2         -2.5018    1.5760  -10.2111 N.3       1 <0>        -0.4320
     31 N3         -2.6997    3.8562  -12.1647 N.3       1 <0>        -0.9031
     32 N4          1.1922    8.9569  -10.7874 N.3       1 <0>        -0.9068
     33 N5          2.7371    0.8335   -5.8843 N.am      1 <0>        -0.5526
     34 N6          0.6426    3.2153   -7.3763 N.am      1 <0>        -0.5576
     35 O1         -2.5986    4.9773   -9.1254 O.2       1 <0>        -0.6710
     36 O2          3.8302    3.7133   -5.7870 O.2       1 <0>        -0.4901
     37 O3          1.5437    2.2426   -4.4330 O.2       1 <0>        -0.5902
     38 O4          0.3766    2.7593   -9.6452 O.2       1 <0>        -0.5833
     39 H1         -7.4841    5.0650  -15.6314 H         1 <0>         0.1320
     40 H2         -5.1973    6.0241  -15.7027 H         1 <0>         0.1324
     41 H3         -8.3853    4.1632  -13.5032 H         1 <0>         0.1328
     42 H4         -3.8120    6.0837  -13.6551 H         1 <0>         0.1324
     43 H5         -7.0082    4.2181  -11.4499 H         1 <0>         0.1434
     44 H6          2.0157   -3.5289   -6.6914 H         1 <0>         0.0405
     45 H7          1.5723   -4.3154   -5.1776 H         1 <0>         0.0421
     46 H8          3.0185   -2.8064   -3.8949 H         1 <0>         0.0362
     47 H9          3.9537   -3.5495   -5.1906 H         1 <0>         0.0439
     48 H10        -0.1843   -2.7208   -5.9717 H         1 <0>         0.0350
     49 H11         0.4414   -2.2905   -4.3815 H         1 <0>         0.0428
     50 H12         4.4145   -1.1032   -4.9827 H         1 <0>         0.0663
     51 H13         3.7818   -1.5267   -6.5664 H         1 <0>         0.0466
     52 H14         1.1993   -1.0088   -7.0534 H         1 <0>         0.0493
     53 H15         0.2581   -0.2707   -5.7653 H         1 <0>         0.0520
     54 H16        -2.5391    0.7200   -7.4620 H         1 <0>         0.0915
     55 H17        -0.7905    0.4314   -7.6064 H         1 <0>         0.0601
     56 H18        -4.8571    2.4214  -12.0603 H         1 <0>         0.0688
     57 H19        -5.4956    2.9043  -10.5031 H         1 <0>         0.0630
     58 H20        -0.9338    0.2117   -9.9745 H         1 <0>         0.0807
     59 H21        -2.4949   -0.4779   -9.5259 H         1 <0>         0.0380
     60 H22        -4.4307    1.2677   -9.3899 H         1 <0>         0.0484
     61 H23        -4.1761    0.5456  -10.9773 H         1 <0>         0.0697
     62 H24        -1.8462    2.9971   -7.3786 H         1 <0>         0.0843
     63 H25         2.2030   -0.2872   -4.2428 H         1 <0>         0.0831
     64 H26        -3.8200    6.0535  -11.1955 H         1 <0>         0.0704
     65 H27        -5.1199    5.2949  -10.2986 H         1 <0>         0.0718
     66 H28         0.3683    5.4079   -8.8774 H         1 <0>         0.0606
     67 H29         1.7918    5.0040   -9.8306 H         1 <0>         0.0458
     68 H30         1.2300    7.6523   -8.4256 H         1 <0>         0.0375
     69 H31         2.7093    7.3123   -9.3176 H         1 <0>         0.0392
     70 H32         1.7604    5.7005   -6.8419 H         1 <0>         0.0606
     71 H33         3.2243    5.3739   -7.7660 H         1 <0>         0.0579
     72 H34        -0.1287    7.3572  -10.4981 H         1 <0>         0.0571
     73 H35         1.3345    6.9786  -11.4193 H         1 <0>         0.0503
     74 H36         2.4714    3.0747   -8.2388 H         1 <0>         0.0993
     75 H37        -2.3461    2.9648  -12.4248 H         1 <0>         0.3700
     76 H38        -2.3015    4.7109  -12.4784 H         1 <0>         0.3660
     77 H39         0.7014    9.4044  -11.5317 H         1 <0>         0.3465
     78 H40         1.9755    9.3785  -10.3359 H         1 <0>         0.3446
     79 H41         3.3550    0.8499   -6.6902 H         1 <0>         0.3148
     80 H42         0.1596    3.2148   -6.4798 H         1 <0>         0.3220
@<TRIPOS>BOND
     1    1    2 ar
     2    1    3 ar
     3    2    4 ar
     4    3    5 ar
     5    4    6 ar
     6    5    6 ar
     7    6   23 1
     8    7   22 1
     9    7   29 am
    10    7   35 2
    11    8    9 1
    12    8   28 1
    13    8   36 2
    14    9   33 am
    15    9   37 2
    16   10   20 1
    17   10   34 am
    18   10   38 2
    19   11   12 1
    20   11   13 1
    21   12   14 1
    22   13   15 1
    23   14   21 1
    24   15   21 1
    25   16   18 1
    26   16   20 1
    27   17   19 1
    28   17   22 1
    29   18   30 1
    30   19   30 1
    31   20   29 1
    32   21   33 1
    33   22   23 1
    34   22   31 1
    35   24   25 1
    36   24   26 1
    37   25   27 1
    38   26   28 1
    39   27   32 1
    40   28   34 1
    41   29   30 1
    42    1   39 1
    43    2   40 1
    44    3   41 1
    45    4   42 1
    46    5   43 1
    47   11   44 1
    48   11   45 1
    49   12   46 1
    50   12   47 1
    51   13   48 1
    52   13   49 1
    53   14   50 1
    54   14   51 1
    55   15   52 1
    56   15   53 1
    57   16   54 1
    58   16   55 1
    59   17   56 1
    60   17   57 1
    61   18   58 1
    62   18   59 1
    63   19   60 1
    64   19   61 1
    65   20   62 1
    66   21   63 1
    67   23   64 1
    68   23   65 1
    69   24   66 1
    70   24   67 1
    71   25   68 1
    72   25   69 1
    73   26   70 1
    74   26   71 1
    75   27   72 1
    76   27   73 1
    77   28   74 1
    78   31   75 1
    79   31   76 1
    80   32   77 1
    81   32   78 1
    82   33   79 1
    83   34   80 1
@<TRIPOS>MOLECULE
1a46_ligand_84
   80    83     0     0     0
SMALL
USER_CHARGES

mmff94s_NoEstat = 82.83
@<TRIPOS>ATOM
      1 C1          5.9504   -1.3642  -10.1903 C.ar      1 <0>        -0.1300
      2 C2          6.6765   -1.8241   -9.0918 C.ar      1 <0>        -0.1323
      3 C3          5.5463   -0.0305  -10.2504 C.ar      1 <0>        -0.1309
      4 C4          6.9984   -0.9504   -8.0532 C.ar      1 <0>        -0.1275
      5 C5          5.8681    0.8432   -9.2119 C.ar      1 <0>        -0.1272
      6 C6          6.5921    0.3776   -8.1201 C.ar      1 <0>        -0.0843
      7 C7          6.1974    2.2868   -4.7798 C.2       1 <0>         0.6709
      8 C8          5.2358    2.3798    1.5634 C.2       1 <0>         0.4867
      9 C9          5.6522    1.1980    2.3894 C.2       1 <0>         0.5883
     10 C10         5.7098    2.8119   -1.6475 C.2       1 <0>         0.6572
     11 C11         8.7227    2.0199    6.1701 C.3       1 <0>        -0.0802
     12 C12         8.9995    1.5375    4.7486 C.3       1 <0>        -0.0765
     13 C13         7.2401    2.3027    6.3972 C.3       1 <0>        -0.0774
     14 C14         8.1296    0.3339    4.3835 C.3       1 <0>        -0.0953
     15 C15         6.3745    1.0970    6.0285 C.3       1 <0>        -0.0906
     16 C16         3.6723    3.8570   -2.6681 C.3       1 <0>        -0.0871
     17 C17         4.4858    1.7161   -6.5463 C.3       1 <0>        -0.0716
     18 C18         2.9535    2.6133   -3.1875 C.3       1 <0>         0.1333
     19 C19         3.4659    2.2898   -5.5476 C.3       1 <0>         0.1246
     20 C20         5.1372    3.5153   -2.8394 C.3       1 <0>         0.0606
     21 C21         6.6330    0.5923    4.6026 C.3       1 <0>         0.1012
     22 C22         5.8481    1.3265   -5.9256 C.3       1 <0>         0.1554
     23 C23         6.9383    1.3175   -7.0029 C.3       1 <0>        -0.0356
     24 C24         8.0800    4.9598    0.7851 C.3       1 <0>        -0.0795
     25 C25         8.7880    6.0338    1.6192 C.3       1 <0>        -0.1203
     26 C26         6.9719    4.2276    1.5544 C.3       1 <0>        -0.0920
     27 C27         9.9095    6.7454    0.8629 C.3       1 <0>         0.1502
     28 C28         6.2906    3.1130    0.7514 C.3       1 <0>         0.0224
     29 N1          5.1345    2.5635   -3.9339 N.am      1 <0>        -0.3553
     30 N2          3.8653    2.0037   -4.1710 N.3       1 <0>        -0.4320
     31 N3          5.7803   -0.0123   -5.3216 N.3       1 <0>        -0.9031
     32 N4         10.5470    7.7366    1.7233 N.3       1 <0>        -0.9068
     33 N5          6.1375    1.5625    3.6237 N.am      1 <0>        -0.5526
     34 N6          5.7762    3.5917   -0.5046 N.am      1 <0>        -0.5576
     35 O1          7.3278    2.7504   -4.6301 O.2       1 <0>        -0.6710
     36 O2          4.0675    2.7325    1.6631 O.2       1 <0>        -0.4901
     37 O3          5.5427    0.0877    1.8954 O.2       1 <0>        -0.5902
     38 O4          6.0670    1.6440   -1.7490 O.2       1 <0>        -0.5833
     39 H1          5.6997   -2.0446  -10.9989 H         1 <0>         0.1320
     40 H2          6.9911   -2.8626   -9.0451 H         1 <0>         0.1324
     41 H3          4.9808    0.3274  -11.1059 H         1 <0>         0.1328
     42 H4          7.5644   -1.3176   -7.2012 H         1 <0>         0.1324
     43 H5          5.5489    1.8806   -9.2673 H         1 <0>         0.1434
     44 H6          9.0596    1.2576    6.8835 H         1 <0>         0.0405
     45 H7          9.3063    2.9251    6.3727 H         1 <0>         0.0421
     46 H8          8.8154    2.3561    4.0424 H         1 <0>         0.0362
     47 H9         10.0575    1.2680    4.6519 H         1 <0>         0.0439
     48 H10         7.0732    2.5664    7.4478 H         1 <0>         0.0350
     49 H11         6.9383    3.1721    5.8007 H         1 <0>         0.0428
     50 H12         8.3159    0.0588    3.3382 H         1 <0>         0.0663
     51 H13         8.4360   -0.5230    4.9969 H         1 <0>         0.0466
     52 H14         6.5799    0.2840    6.7364 H         1 <0>         0.0493
     53 H15         5.3172    1.3630    6.1484 H         1 <0>         0.0520
     54 H16         3.4181    4.7133   -3.3051 H         1 <0>         0.0915
     55 H17         3.3944    4.0971   -1.6373 H         1 <0>         0.0601
     56 H18         4.0497    0.8441   -7.0524 H         1 <0>         0.0688
     57 H19         4.6431    2.4675   -7.3320 H         1 <0>         0.0630
     58 H20         2.8170    1.9026   -2.3635 H         1 <0>         0.0807
     59 H21         1.9588    2.8453   -3.5837 H         1 <0>         0.0380
     60 H22         3.3744    3.3723   -5.7123 H         1 <0>         0.0484
     61 H23         2.4818    1.8533   -5.7569 H         1 <0>         0.0697
     62 H24         5.7646    4.3810   -3.0694 H         1 <0>         0.0843
     63 H25         6.0671   -0.3284    4.4260 H         1 <0>         0.0831
     64 H26         7.8868    1.0311   -6.5450 H         1 <0>         0.0704
     65 H27         7.0672    2.3317   -7.3854 H         1 <0>         0.0718
     66 H28         7.6494    5.4516   -0.0948 H         1 <0>         0.0606
     67 H29         8.8216    4.2418    0.4157 H         1 <0>         0.0458
     68 H30         8.0356    6.7709    1.9287 H         1 <0>         0.0375
     69 H31         9.1825    5.5824    2.5383 H         1 <0>         0.0392
     70 H32         6.2171    4.9575    1.8728 H         1 <0>         0.0606
     71 H33         7.3929    3.7874    2.4660 H         1 <0>         0.0579
     72 H34         9.5108    7.2416   -0.0285 H         1 <0>         0.0571
     73 H35        10.6706    6.0303    0.5375 H         1 <0>         0.0503
     74 H36         7.0421    2.3587    0.4881 H         1 <0>         0.0993
     75 H37         4.9287   -0.2795   -4.8849 H         1 <0>         0.3700
     76 H38         6.6336   -0.5056   -5.1950 H         1 <0>         0.3660
     77 H39        11.2163    8.3531    1.3147 H         1 <0>         0.3465
     78 H40        10.4498    7.6340    2.7108 H         1 <0>         0.3446
     79 H41         6.1529    2.5484    3.8672 H         1 <0>         0.3148
     80 H42         5.4441    4.5531   -0.5557 H         1 <0>         0.3220
@<TRIPOS>BOND
     1    1    2 ar
     2    1    3 ar
     3    2    4 ar
     4    3    5 ar
     5    4    6 ar
     6    5    6 ar
     7    6   23 1
     8    7   22 1
     9    7   29 am
    10    7   35 2
    11    8    9 1
    12    8   28 1
    13    8   36 2
    14    9   33 am
    15    9   37 2
    16   10   20 1
    17   10   34 am
    18   10   38 2
    19   11   12 1
    20   11   13 1
    21   12   14 1
    22   13   15 1
    23   14   21 1
    24   15   21 1
    25   16   18 1
    26   16   20 1
    27   17   19 1
    28   17   22 1
    29   18   30 1
    30   19   30 1
    31   20   29 1
    32   21   33 1
    33   22   23 1
    34   22   31 1
    35   24   25 1
    36   24   26 1
    37   25   27 1
    38   26   28 1
    39   27   32 1
    40   28   34 1
    41   29   30 1
    42    1   39 1
    43    2   40 1
    44    3   41 1
    45    4   42 1
    46    5   43 1
    47   11   44 1
    48   11   45 1
    49   12   46 1
    50   12   47 1
    51   13   48 1
    52   13   49 1
    53   14   50 1
    54   14   51 1
    55   15   52 1
    56   15   53 1
    57   16   54 1
    58   16   55 1
    59   17   56 1
    60   17   57 1
    61   18   58 1
    62   18   59 1
    63   19   60 1
    64   19   61 1
    65   20   62 1
    66   21   63 1
    67   23   64 1
    68   23   65 1
    69   24   66 1
    70   24   67 1
    71   25   68 1
    72   25   69 1
    73   26   70 1
    74   26   71 1
    75   27   72 1
    76   27   73 1
    77   28   74 1
    78   31   75 1
    79   31   76 1
    80   32   77 1
    81   32   78 1
    82   33   79 1
    83   34   80 1
@<TRIPOS>MOLECULE
1a46_ligand_85
   80    83     0     0     0
SMALL
USER_CHARGES

mmff94s_NoEstat = 82.85
@<TRIPOS>ATOM
      1 C1          5.9504   -1.3642  -10.1903 C.ar      1 <0>        -0.1300
      2 C2          6.6765   -1.8241   -9.0918 C.ar      1 <0>        -0.1323
      3 C3          5.5463   -0.0305  -10.2504 C.ar      1 <0>        -0.1309
      4 C4          6.9984   -0.9504   -8.0532 C.ar      1 <0>        -0.1275
      5 C5          5.8681    0.8432   -9.2119 C.ar      1 <0>        -0.1272
      6 C6          6.5921    0.3776   -8.1201 C.ar      1 <0>        -0.0843
      7 C7          6.1974    2.2868   -4.7798 C.2       1 <0>         0.6709
      8 C8          5.2358    2.3798    1.5634 C.2       1 <0>         0.4867
      9 C9          5.6522    1.1980    2.3894 C.2       1 <0>         0.5883
     10 C10         5.7098    2.8119   -1.6475 C.2       1 <0>         0.6572
     11 C11         5.8911   -3.1928    0.1399 C.3       1 <0>        -0.0802
     12 C12         4.7903   -2.5697    0.9943 C.3       1 <0>        -0.0765
     13 C13         7.0788   -2.2502   -0.0351 C.3       1 <0>        -0.0774
     14 C14         5.3303   -2.0814    2.3392 C.3       1 <0>        -0.0953
     15 C15         7.6136   -1.7629    1.3123 C.3       1 <0>        -0.0906
     16 C16         3.6723    3.8570   -2.6681 C.3       1 <0>        -0.0871
     17 C17         4.4858    1.7161   -6.5463 C.3       1 <0>        -0.0716
     18 C18         2.9535    2.6133   -3.1875 C.3       1 <0>         0.1333
     19 C19         3.4659    2.2898   -5.5476 C.3       1 <0>         0.1246
     20 C20         5.1372    3.5153   -2.8394 C.3       1 <0>         0.0606
     21 C21         6.5260   -1.1310    2.1912 C.3       1 <0>         0.1012
     22 C22         5.8481    1.3265   -5.9256 C.3       1 <0>         0.1554
     23 C23         6.9383    1.3175   -7.0029 C.3       1 <0>        -0.0356
     24 C24         8.0800    4.9598    0.7851 C.3       1 <0>        -0.0795
     25 C25         8.7880    6.0338    1.6192 C.3       1 <0>        -0.1203
     26 C26         6.9719    4.2276    1.5544 C.3       1 <0>        -0.0920
     27 C27         9.9095    6.7454    0.8629 C.3       1 <0>         0.1502
     28 C28         6.2906    3.1130    0.7514 C.3       1 <0>         0.0224
     29 N1          5.1345    2.5635   -3.9339 N.am      1 <0>        -0.3553
     30 N2          3.8653    2.0037   -4.1710 N.3       1 <0>        -0.4320
     31 N3          5.7803   -0.0123   -5.3216 N.3       1 <0>        -0.9031
     32 N4          9.3732    7.4215   -0.3138 N.3       1 <0>        -0.9068
     33 N5          6.0911    0.1457    1.6201 N.am      1 <0>        -0.5526
     34 N6          5.7762    3.5917   -0.5046 N.am      1 <0>        -0.5576
     35 O1          7.3278    2.7504   -4.6301 O.2       1 <0>        -0.6710
     36 O2          4.0675    2.7325    1.6631 O.2       1 <0>        -0.4901
     37 O3          5.5431    1.2807    3.6019 O.2       1 <0>        -0.5902
     38 O4          6.0670    1.6440   -1.7490 O.2       1 <0>        -0.5833
     39 H1          5.6997   -2.0446  -10.9989 H         1 <0>         0.1320
     40 H2          6.9911   -2.8626   -9.0451 H         1 <0>         0.1324
     41 H3          4.9808    0.3274  -11.1059 H         1 <0>         0.1328
     42 H4          7.5644   -1.3176   -7.2012 H         1 <0>         0.1324
     43 H5          5.5489    1.8806   -9.2673 H         1 <0>         0.1434
     44 H6          6.2329   -4.1227    0.6110 H         1 <0>         0.0405
     45 H7          5.4871   -3.4636   -0.8422 H         1 <0>         0.0421
     46 H8          4.3356   -1.7325    0.4511 H         1 <0>         0.0362
     47 H9          3.9961   -3.3058    1.1637 H         1 <0>         0.0439
     48 H10         7.8774   -2.7635   -0.5827 H         1 <0>         0.0350
     49 H11         6.7768   -1.3914   -0.6467 H         1 <0>         0.0428
     50 H12         4.5228   -1.5882    2.8938 H         1 <0>         0.0663
     51 H13         5.6388   -2.9510    2.9333 H         1 <0>         0.0466
     52 H14         8.0534   -2.6142    1.8474 H         1 <0>         0.0493
     53 H15         8.4235   -1.0439    1.1392 H         1 <0>         0.0520
     54 H16         3.4181    4.7133   -3.3051 H         1 <0>         0.0915
     55 H17         3.3944    4.0971   -1.6373 H         1 <0>         0.0601
     56 H18         4.0497    0.8441   -7.0524 H         1 <0>         0.0688
     57 H19         4.6431    2.4675   -7.3320 H         1 <0>         0.0630
     58 H20         2.8170    1.9026   -2.3635 H         1 <0>         0.0807
     59 H21         1.9588    2.8453   -3.5837 H         1 <0>         0.0380
     60 H22         3.3744    3.3723   -5.7123 H         1 <0>         0.0484
     61 H23         2.4818    1.8533   -5.7569 H         1 <0>         0.0697
     62 H24         5.7646    4.3810   -3.0694 H         1 <0>         0.0843
     63 H25         6.9368   -0.8941    3.1782 H         1 <0>         0.0831
     64 H26         7.8868    1.0311   -6.5450 H         1 <0>         0.0704
     65 H27         7.0672    2.3317   -7.3854 H         1 <0>         0.0718
     66 H28         7.6494    5.4516   -0.0948 H         1 <0>         0.0606
     67 H29         8.8216    4.2418    0.4157 H         1 <0>         0.0458
     68 H30         8.0356    6.7709    1.9287 H         1 <0>         0.0375
     69 H31         9.1825    5.5824    2.5383 H         1 <0>         0.0392
     70 H32         6.2171    4.9575    1.8728 H         1 <0>         0.0606
     71 H33         7.3929    3.7874    2.4660 H         1 <0>         0.0579
     72 H34        10.6735    6.0252    0.5509 H         1 <0>         0.0571
     73 H35        10.3920    7.4923    1.5001 H         1 <0>         0.0503
     74 H36         7.0421    2.3587    0.4881 H         1 <0>         0.0993
     75 H37         4.9287   -0.2795   -4.8849 H         1 <0>         0.3700
     76 H38         6.6336   -0.5056   -5.1950 H         1 <0>         0.3660
     77 H39        10.0182    7.8250   -0.9589 H         1 <0>         0.3465
     78 H40         8.3988    7.6342   -0.3305 H         1 <0>         0.3446
     79 H41         6.1146    0.2589    0.6111 H         1 <0>         0.3148
     80 H42         5.4441    4.5531   -0.5557 H         1 <0>         0.3220
@<TRIPOS>BOND
     1    1    2 ar
     2    1    3 ar
     3    2    4 ar
     4    3    5 ar
     5    4    6 ar
     6    5    6 ar
     7    6   23 1
     8    7   22 1
     9    7   29 am
    10    7   35 2
    11    8    9 1
    12    8   28 1
    13    8   36 2
    14    9   33 am
    15    9   37 2
    16   10   20 1
    17   10   34 am
    18   10   38 2
    19   11   12 1
    20   11   13 1
    21   12   14 1
    22   13   15 1
    23   14   21 1
    24   15   21 1
    25   16   18 1
    26   16   20 1
    27   17   19 1
    28   17   22 1
    29   18   30 1
    30   19   30 1
    31   20   29 1
    32   21   33 1
    33   22   23 1
    34   22   31 1
    35   24   25 1
    36   24   26 1
    37   25   27 1
    38   26   28 1
    39   27   32 1
    40   28   34 1
    41   29   30 1
    42    1   39 1
    43    2   40 1
    44    3   41 1
    45    4   42 1
    46    5   43 1
    47   11   44 1
    48   11   45 1
    49   12   46 1
    50   12   47 1
    51   13   48 1
    52   13   49 1
    53   14   50 1
    54   14   51 1
    55   15   52 1
    56   15   53 1
    57   16   54 1
    58   16   55 1
    59   17   56 1
    60   17   57 1
    61   18   58 1
    62   18   59 1
    63   19   60 1
    64   19   61 1
    65   20   62 1
    66   21   63 1
    67   23   64 1
    68   23   65 1
    69   24   66 1
    70   24   67 1
    71   25   68 1
    72   25   69 1
    73   26   70 1
    74   26   71 1
    75   27   72 1
    76   27   73 1
    77   28   74 1
    78   31   75 1
    79   31   76 1
    80   32   77 1
    81   32   78 1
    82   33   79 1
    83   34   80 1
@<TRIPOS>MOLECULE
1a46_ligand_86
   80    83     0     0     0
SMALL
USER_CHARGES

mmff94s_NoEstat = 82.86
@<TRIPOS>ATOM
      1 C1          9.3427    1.2226  -10.2936 C.ar      1 <0>        -0.1300
      2 C2          9.9666    0.8172   -9.1138 C.ar      1 <0>        -0.1323
      3 C3          8.4336    2.2805  -10.2739 C.ar      1 <0>        -0.1309
      4 C4          9.6814    1.4695   -7.9143 C.ar      1 <0>        -0.1275
      5 C5          8.1485    2.9328   -9.0744 C.ar      1 <0>        -0.1272
      6 C6          8.7742    2.5231   -7.9024 C.ar      1 <0>        -0.0843
      7 C7          6.9710    3.2795   -4.5657 C.2       1 <0>         0.6709
      8 C8          5.2358    2.3798    1.5634 C.2       1 <0>         0.4867
      9 C9          5.6457    1.7076    2.8411 C.2       1 <0>         0.5883
     10 C10         5.7098    2.8119   -1.6475 C.2       1 <0>         0.6572
     11 C11         2.8486    2.3942    6.8538 C.3       1 <0>        -0.0802
     12 C12         3.8094    3.5162    6.4691 C.3       1 <0>        -0.0765
     13 C13         2.9140    1.2269    5.8726 C.3       1 <0>        -0.0774
     14 C14         5.2382    2.9990    6.2966 C.3       1 <0>        -0.0953
     15 C15         4.3449    0.7149    5.7018 C.3       1 <0>        -0.0906
     16 C16         3.6624    3.2324   -3.0320 C.3       1 <0>        -0.0871
     17 C17         6.0388    2.5547   -6.7975 C.3       1 <0>        -0.0716
     18 C18         3.6514    1.9752   -3.8994 C.3       1 <0>         0.1333
     19 C19         4.6996    2.4463   -6.0480 C.3       1 <0>         0.1246
     20 C20         5.1372    3.5153   -2.8394 C.3       1 <0>         0.0606
     21 C21         5.3317    1.8242    5.3139 C.3       1 <0>         0.1012
     22 C22         7.2891    2.5653   -5.8869 C.3       1 <0>         0.1554
     23 C23         8.4675    3.2247   -6.6121 C.3       1 <0>        -0.0356
     24 C24         6.0158    5.3379    2.0114 C.3       1 <0>        -0.0795
     25 C25         6.7209    6.4716    2.7653 C.3       1 <0>        -0.1203
     26 C26         6.9719    4.2276    1.5544 C.3       1 <0>        -0.0920
     27 C27         5.7742    7.5909    3.1979 C.3       1 <0>         0.1502
     28 C28         6.2906    3.1130    0.7514 C.3       1 <0>         0.0224
     29 N1          5.7488    2.9259   -4.0152 N.am      1 <0>        -0.3553
     30 N2          4.9069    2.0073   -4.6693 N.3       1 <0>        -0.4320
     31 N3          7.6768    1.1953   -5.5201 N.3       1 <0>        -0.9031
     32 N4          6.5168    8.6391    3.8900 N.3       1 <0>        -0.9068
     33 N5          5.0674    2.2831    3.9484 N.am      1 <0>        -0.5526
     34 N6          5.7762    3.5917   -0.5046 N.am      1 <0>        -0.5576
     35 O1          7.7474    4.0812   -4.0464 O.2       1 <0>        -0.6710
     36 O2          4.0412    2.3628    1.2952 O.2       1 <0>        -0.4901
     37 O3          6.4307    0.7761    2.7710 O.2       1 <0>        -0.5902
     38 O4          6.0670    1.6440   -1.7490 O.2       1 <0>        -0.5833
     39 H1          9.5646    0.7147  -11.2275 H         1 <0>         0.1320
     40 H2         10.6743   -0.0064   -9.1292 H         1 <0>         0.1324
     41 H3          7.9478    2.5960  -11.1926 H         1 <0>         0.1328
     42 H4         10.1723    1.1467   -7.0000 H         1 <0>         0.1324
     43 H5          7.4388    3.7559   -9.0687 H         1 <0>         0.1434
     44 H6          3.0952    2.0354    7.8608 H         1 <0>         0.0405
     45 H7          1.8251    2.7835    6.8965 H         1 <0>         0.0421
     46 H8          3.4697    3.9852    5.5378 H         1 <0>         0.0362
     47 H9          3.7921    4.2948    7.2403 H         1 <0>         0.0439
     48 H10         2.2729    0.4120    6.2280 H         1 <0>         0.0350
     49 H11         2.5148    1.5431    4.9013 H         1 <0>         0.0428
     50 H12         5.8813    3.8223    5.9625 H         1 <0>         0.0663
     51 H13         5.6180    2.6759    7.2742 H         1 <0>         0.0466
     52 H14         4.6733    0.2604    6.6452 H         1 <0>         0.0493
     53 H15         4.3549   -0.0798    4.9460 H         1 <0>         0.0520
     54 H16         3.1996    4.0578   -3.5869 H         1 <0>         0.0915
     55 H17         3.1150    3.0948   -2.0945 H         1 <0>         0.0601
     56 H18         6.1186    1.7328   -7.5220 H         1 <0>         0.0688
     57 H19         6.0134    3.4760   -7.3953 H         1 <0>         0.0630
     58 H20         3.6705    1.0888   -3.2538 H         1 <0>         0.0807
     59 H21         2.7495    1.9066   -4.5175 H         1 <0>         0.0380
     60 H22         4.1937    3.4213   -6.0771 H         1 <0>         0.0484
     61 H23         4.0529    1.7380   -6.5798 H         1 <0>         0.0697
     62 H24         5.3721    4.5807   -2.7630 H         1 <0>         0.0843
     63 H25         6.3523    1.4273    5.3051 H         1 <0>         0.0831
     64 H26         9.3395    3.2124   -5.9558 H         1 <0>         0.0704
     65 H27         8.2279    4.2735   -6.7972 H         1 <0>         0.0718
     66 H28         5.2579    4.9142    2.6804 H         1 <0>         0.0606
     67 H29         5.4809    5.7546    1.1500 H         1 <0>         0.0458
     68 H30         7.2000    6.0392    3.6534 H         1 <0>         0.0375
     69 H31         7.5258    6.8807    2.1417 H         1 <0>         0.0392
     70 H32         7.4599    3.7926    2.4354 H         1 <0>         0.0606
     71 H33         7.7645    4.6634    0.9347 H         1 <0>         0.0579
     72 H34         4.9986    7.1962    3.8630 H         1 <0>         0.0571
     73 H35         5.2784    8.0349    2.3297 H         1 <0>         0.0503
     74 H36         7.0421    2.3587    0.4881 H         1 <0>         0.0993
     75 H37         6.9507    0.5323   -5.3773 H         1 <0>         0.3700
     76 H38         8.6161    1.0420   -5.2343 H         1 <0>         0.3660
     77 H39         5.9996    9.3711    4.3277 H         1 <0>         0.3465
     78 H40         7.4997    8.7018    3.7315 H         1 <0>         0.3446
     79 H41         4.4287    3.0611    3.8132 H         1 <0>         0.3148
     80 H42         5.4441    4.5531   -0.5557 H         1 <0>         0.3220
@<TRIPOS>BOND
     1    1    2 ar
     2    1    3 ar
     3    2    4 ar
     4    3    5 ar
     5    4    6 ar
     6    5    6 ar
     7    6   23 1
     8    7   22 1
     9    7   29 am
    10    7   35 2
    11    8    9 1
    12    8   28 1
    13    8   36 2
    14    9   33 am
    15    9   37 2
    16   10   20 1
    17   10   34 am
    18   10   38 2
    19   11   12 1
    20   11   13 1
    21   12   14 1
    22   13   15 1
    23   14   21 1
    24   15   21 1
    25   16   18 1
    26   16   20 1
    27   17   19 1
    28   17   22 1
    29   18   30 1
    30   19   30 1
    31   20   29 1
    32   21   33 1
    33   22   23 1
    34   22   31 1
    35   24   25 1
    36   24   26 1
    37   25   27 1
    38   26   28 1
    39   27   32 1
    40   28   34 1
    41   29   30 1
    42    1   39 1
    43    2   40 1
    44    3   41 1
    45    4   42 1
    46    5   43 1
    47   11   44 1
    48   11   45 1
    49   12   46 1
    50   12   47 1
    51   13   48 1
    52   13   49 1
    53   14   50 1
    54   14   51 1
    55   15   52 1
    56   15   53 1
    57   16   54 1
    58   16   55 1
    59   17   56 1
    60   17   57 1
    61   18   58 1
    62   18   59 1
    63   19   60 1
    64   19   61 1
    65   20   62 1
    66   21   63 1
    67   23   64 1
    68   23   65 1
    69   24   66 1
    70   24   67 1
    71   25   68 1
    72   25   69 1
    73   26   70 1
    74   26   71 1
    75   27   72 1
    76   27   73 1
    77   28   74 1
    78   31   75 1
    79   31   76 1
    80   32   77 1
    81   32   78 1
    82   33   79 1
    83   34   80 1
@<TRIPOS>MOLECULE
1a46_ligand_87
   80    83     0     0     0
SMALL
USER_CHARGES

mmff94s_NoEstat = 82.93
@<TRIPOS>ATOM
      1 C1         11.0121    9.2104   -7.9325 C.ar      1 <0>        -0.1300
      2 C2         11.5385    8.8832   -6.6829 C.ar      1 <0>        -0.1323
      3 C3          9.6345    9.1559   -8.1449 C.ar      1 <0>        -0.1309
      4 C4         10.6874    8.5015   -5.6458 C.ar      1 <0>        -0.1275
      5 C5          8.7834    8.7742   -7.1078 C.ar      1 <0>        -0.1272
      6 C6          9.3154    8.4495   -5.8650 C.ar      1 <0>        -0.0843
      7 C7          7.2411    6.0968   -3.6024 C.2       1 <0>         0.6709
      8 C8          5.2358    2.3798    1.5634 C.2       1 <0>         0.4867
      9 C9          5.6522    1.1980    2.3894 C.2       1 <0>         0.5883
     10 C10         6.5256    3.6321   -1.6689 C.2       1 <0>         0.6572
     11 C11         2.4616   -2.5517    2.7858 C.3       1 <0>        -0.0802
     12 C12         2.7458   -1.3819    3.7243 C.3       1 <0>        -0.0765
     13 C13         3.3149   -2.4881    1.5218 C.3       1 <0>        -0.0774
     14 C14         4.2358   -1.2710    4.0502 C.3       1 <0>        -0.0953
     15 C15         4.8036   -2.3750    1.8530 C.3       1 <0>        -0.0906
     16 C16         5.2113    3.0694   -3.7284 C.3       1 <0>        -0.0871
     17 C17         7.6012    6.0599   -6.1012 C.3       1 <0>        -0.0716
     18 C18         6.3446    2.7580   -4.7039 C.3       1 <0>         0.1333
     19 C19         6.8355    4.7264   -6.0536 C.3       1 <0>         0.1246
     20 C20         5.7868    4.1659   -2.8575 C.3       1 <0>         0.0606
     21 C21         5.1166   -1.2051    2.7954 C.3       1 <0>         0.1012
     22 C22         8.1773    6.5224   -4.7422 C.3       1 <0>         0.1554
     23 C23         8.4000    8.0389   -4.7494 C.3       1 <0>        -0.0356
     24 C24         6.0158    5.3379    2.0114 C.3       1 <0>        -0.0795
     25 C25         6.7209    6.4716    2.7653 C.3       1 <0>        -0.1203
     26 C26         6.9719    4.2276    1.5544 C.3       1 <0>        -0.0920
     27 C27         5.7742    7.5909    3.1979 C.3       1 <0>         0.1502
     28 C28         6.2906    3.1130    0.7514 C.3       1 <0>         0.0224
     29 N1          6.7674    4.7991   -3.7183 N.am      1 <0>        -0.3553
     30 N2          7.1280    4.0001   -4.8193 N.3       1 <0>        -0.4320
     31 N3          9.4643    5.8648   -4.4722 N.3       1 <0>        -0.9031
     32 N4          6.5168    8.6391    3.8900 N.3       1 <0>        -0.9068
     33 N5          4.9185    0.0703    2.1034 N.am      1 <0>        -0.5526
     34 N6          5.7762    3.5917   -0.5046 N.am      1 <0>        -0.5576
     35 O1          6.9567    6.8465   -2.6685 O.2       1 <0>        -0.6710
     36 O2          4.0675    2.7325    1.6631 O.2       1 <0>        -0.4901
     37 O3          6.5432    1.3575    3.2076 O.2       1 <0>        -0.5902
     38 O4          7.6924    3.2783   -1.7917 O.2       1 <0>        -0.5833
     39 H1         11.6747    9.5075   -8.7400 H         1 <0>         0.1320
     40 H2         12.6111    8.9257   -6.5176 H         1 <0>         0.1324
     41 H3          9.2248    9.4105   -9.1180 H         1 <0>         0.1328
     42 H4         11.1066    8.2484   -4.6756 H         1 <0>         0.1324
     43 H5          7.7115    8.7346   -7.2826 H         1 <0>         0.1434
     44 H6          2.6613   -3.4941    3.3107 H         1 <0>         0.0405
     45 H7          1.3999   -2.5575    2.5144 H         1 <0>         0.0421
     46 H8          2.3966   -0.4501    3.2632 H         1 <0>         0.0362
     47 H9          2.1760   -1.5088    4.6520 H         1 <0>         0.0439
     48 H10         3.1411   -3.3847    0.9159 H         1 <0>         0.0350
     49 H11         3.0040   -1.6300    0.9138 H         1 <0>         0.0428
     50 H12         4.4027   -0.3853    4.6752 H         1 <0>         0.0663
     51 H13         4.5329   -2.1422    4.6479 H         1 <0>         0.0466
     52 H14         5.1334   -3.3097    2.3243 H         1 <0>         0.0493
     53 H15         5.3727   -2.2712    0.9212 H         1 <0>         0.0520
     54 H16         4.3507    3.4578   -4.2870 H         1 <0>         0.0915
     55 H17         4.8908    2.1856   -3.1683 H         1 <0>         0.0601
     56 H18         8.4120    5.9885   -6.8390 H         1 <0>         0.0688
     57 H19         6.9149    6.8257   -6.4876 H         1 <0>         0.0630
     58 H20         6.9926    1.9855   -4.2725 H         1 <0>         0.0807
     59 H21         5.9735    2.3729   -5.6602 H         1 <0>         0.0380
     60 H22         5.7592    4.9288   -6.1435 H         1 <0>         0.0484
     61 H23         7.1185    4.1245   -6.9255 H         1 <0>         0.0697
     62 H24         5.0406    4.8864   -2.5107 H         1 <0>         0.0843
     63 H25         6.1733   -1.2308    3.0814 H         1 <0>         0.0831
     64 H26         8.8151    8.3408   -3.7861 H         1 <0>         0.0704
     65 H27         7.4343    8.5386   -4.8464 H         1 <0>         0.0718
     66 H28         5.2579    4.9142    2.6804 H         1 <0>         0.0606
     67 H29         5.4809    5.7546    1.1500 H         1 <0>         0.0458
     68 H30         7.2000    6.0392    3.6534 H         1 <0>         0.0375
     69 H31         7.5258    6.8807    2.1417 H         1 <0>         0.0392
     70 H32         7.4599    3.7926    2.4354 H         1 <0>         0.0606
     71 H33         7.7645    4.6634    0.9347 H         1 <0>         0.0579
     72 H34         4.9986    7.1962    3.8630 H         1 <0>         0.0571
     73 H35         5.2784    8.0349    2.3297 H         1 <0>         0.0503
     74 H36         7.0421    2.3587    0.4881 H         1 <0>         0.0993
     75 H37         9.5764    4.9261   -4.7778 H         1 <0>         0.3700
     76 H38        10.0811    6.3037   -3.8286 H         1 <0>         0.3660
     77 H39         5.9996    9.3711    4.3277 H         1 <0>         0.3465
     78 H40         7.4997    8.7018    3.7315 H         1 <0>         0.3446
     79 H41         4.2076    0.1245    1.3800 H         1 <0>         0.3148
     80 H42         4.8120    3.9176   -0.5391 H         1 <0>         0.3220
@<TRIPOS>BOND
     1    1    2 ar
     2    1    3 ar
     3    2    4 ar
     4    3    5 ar
     5    4    6 ar
     6    5    6 ar
     7    6   23 1
     8    7   22 1
     9    7   29 am
    10    7   35 2
    11    8    9 1
    12    8   28 1
    13    8   36 2
    14    9   33 am
    15    9   37 2
    16   10   20 1
    17   10   34 am
    18   10   38 2
    19   11   12 1
    20   11   13 1
    21   12   14 1
    22   13   15 1
    23   14   21 1
    24   15   21 1
    25   16   18 1
    26   16   20 1
    27   17   19 1
    28   17   22 1
    29   18   30 1
    30   19   30 1
    31   20   29 1
    32   21   33 1
    33   22   23 1
    34   22   31 1
    35   24   25 1
    36   24   26 1
    37   25   27 1
    38   26   28 1
    39   27   32 1
    40   28   34 1
    41   29   30 1
    42    1   39 1
    43    2   40 1
    44    3   41 1
    45    4   42 1
    46    5   43 1
    47   11   44 1
    48   11   45 1
    49   12   46 1
    50   12   47 1
    51   13   48 1
    52   13   49 1
    53   14   50 1
    54   14   51 1
    55   15   52 1
    56   15   53 1
    57   16   54 1
    58   16   55 1
    59   17   56 1
    60   17   57 1
    61   18   58 1
    62   18   59 1
    63   19   60 1
    64   19   61 1
    65   20   62 1
    66   21   63 1
    67   23   64 1
    68   23   65 1
    69   24   66 1
    70   24   67 1
    71   25   68 1
    72   25   69 1
    73   26   70 1
    74   26   71 1
    75   27   72 1
    76   27   73 1
    77   28   74 1
    78   31   75 1
    79   31   76 1
    80   32   77 1
    81   32   78 1
    82   33   79 1
    83   34   80 1
@<TRIPOS>MOLECULE
1a46_ligand_88
   80    83     0     0     0
SMALL
USER_CHARGES

mmff94s_NoEstat = 82.94
@<TRIPOS>ATOM
      1 C1         -6.8775    5.0901  -14.7309 C.ar      1 <0>        -0.1300
      2 C2         -5.5917    5.6294  -14.7709 C.ar      1 <0>        -0.1323
      3 C3         -7.3842    4.5832  -13.5342 C.ar      1 <0>        -0.1309
      4 C4         -4.8126    5.6616  -13.6144 C.ar      1 <0>        -0.1275
      5 C5         -6.6051    4.6154  -12.3777 C.ar      1 <0>        -0.1272
      6 C6         -5.3244    5.1544  -12.4253 C.ar      1 <0>        -0.0843
      7 C7         -2.7863    3.9453   -9.7694 C.2       1 <0>         0.6709
      8 C8          2.7796    3.2097   -6.1637 C.2       1 <0>         0.4867
      9 C9          4.2587    3.4565   -6.1009 C.2       1 <0>         0.5883
     10 C10        -0.0591    2.8141   -8.5012 C.2       1 <0>         0.6572
     11 C11         8.0869    5.7591   -3.0583 C.3       1 <0>        -0.0802
     12 C12         7.4114    6.7003   -4.0516 C.3       1 <0>        -0.0765
     13 C13         8.0653    4.3138   -3.5477 C.3       1 <0>        -0.0774
     14 C14         5.9928    6.2425   -4.3864 C.3       1 <0>        -0.0953
     15 C15         6.6474    3.8533   -3.8812 C.3       1 <0>        -0.0906
     16 C16        -1.6498    0.9246   -8.0710 C.3       1 <0>        -0.0871
     17 C17        -4.5618    2.6685  -11.0314 C.3       1 <0>        -0.0716
     18 C18        -1.8952    0.4385   -9.4981 C.3       1 <0>         0.1333
     19 C19        -3.9477    1.4257  -10.3641 C.3       1 <0>         0.1246
     20 C20        -1.4789    2.4202   -8.2321 C.3       1 <0>         0.0606
     21 C21         5.9772    4.7944   -4.8882 C.3       1 <0>         0.1012
     22 C22        -3.6459    3.9150  -11.0410 C.3       1 <0>         0.1554
     23 C23        -4.4863    5.1891  -11.1812 C.3       1 <0>        -0.0356
     24 C24         1.5857    6.0302   -6.5865 C.3       1 <0>        -0.0795
     25 C25         1.6811    7.5259   -6.9095 C.3       1 <0>        -0.1203
     26 C26         2.1570    5.1335   -7.6933 C.3       1 <0>        -0.0920
     27 C27         1.0885    8.4192   -5.8200 C.3       1 <0>         0.1502
     28 C28         2.0196    3.6328   -7.4097 C.3       1 <0>         0.0224
     29 N1         -2.2374    2.7178   -9.4321 N.am      1 <0>        -0.3553
     30 N2         -2.5018    1.5760  -10.2111 N.3       1 <0>        -0.4320
     31 N3         -2.6997    3.8562  -12.1647 N.3       1 <0>        -0.9031
     32 N4          1.1980    9.8225   -6.2046 N.3       1 <0>        -0.9068
     33 N5          4.6003    4.3666   -5.1278 N.am      1 <0>        -0.5526
     34 N6          0.6426    3.2153   -7.3763 N.am      1 <0>        -0.5576
     35 O1         -2.5986    4.9773   -9.1254 O.2       1 <0>        -0.6710
     36 O2          2.2586    2.7495   -5.1557 O.2       1 <0>        -0.4901
     37 O3          4.9711    2.8677   -6.8975 O.2       1 <0>        -0.5902
     38 O4          0.3766    2.7593   -9.6452 O.2       1 <0>        -0.5833
     39 H1         -7.4841    5.0650  -15.6314 H         1 <0>         0.1320
     40 H2         -5.1973    6.0241  -15.7027 H         1 <0>         0.1324
     41 H3         -8.3853    4.1632  -13.5032 H         1 <0>         0.1328
     42 H4         -3.8120    6.0837  -13.6551 H         1 <0>         0.1324
     43 H5         -7.0082    4.2181  -11.4499 H         1 <0>         0.1434
     44 H6          9.1226    6.0775   -2.8944 H         1 <0>         0.0405
     45 H7          7.5752    5.8234   -2.0901 H         1 <0>         0.0421
     46 H8          7.3832    7.7146   -3.6377 H         1 <0>         0.0362
     47 H9          8.0055    6.7472   -4.9726 H         1 <0>         0.0439
     48 H10         8.6979    4.2199   -4.4390 H         1 <0>         0.0350
     49 H11         8.4945    3.6589   -2.7810 H         1 <0>         0.0428
     50 H12         5.3593    6.3375   -3.4947 H         1 <0>         0.0663
     51 H13         5.5614    6.9066   -5.1453 H         1 <0>         0.0466
     52 H14         6.6772    2.8336   -4.2842 H         1 <0>         0.0493
     53 H15         6.0532    3.8056   -2.9591 H         1 <0>         0.0520
     54 H16        -2.5391    0.7200   -7.4620 H         1 <0>         0.0915
     55 H17        -0.7905    0.4314   -7.6064 H         1 <0>         0.0601
     56 H18        -4.8571    2.4214  -12.0603 H         1 <0>         0.0688
     57 H19        -5.4956    2.9043  -10.5031 H         1 <0>         0.0630
     58 H20        -0.9338    0.2117   -9.9745 H         1 <0>         0.0807
     59 H21        -2.4949   -0.4779   -9.5259 H         1 <0>         0.0380
     60 H22        -4.4307    1.2677   -9.3899 H         1 <0>         0.0484
     61 H23        -4.1761    0.5456  -10.9773 H         1 <0>         0.0697
     62 H24        -1.8462    2.9971   -7.3786 H         1 <0>         0.0843
     63 H25         6.4913    4.7310   -5.8543 H         1 <0>         0.0831
     64 H26        -3.8200    6.0535  -11.1955 H         1 <0>         0.0704
     65 H27        -5.1199    5.2949  -10.2986 H         1 <0>         0.0718
     66 H28         2.1358    5.8550   -5.6547 H         1 <0>         0.0606
     67 H29         0.5392    5.7688   -6.3906 H         1 <0>         0.0458
     68 H30         2.7419    7.7748   -7.0444 H         1 <0>         0.0375
     69 H31         1.1870    7.7255   -7.8687 H         1 <0>         0.0392
     70 H32         3.2164    5.3787   -7.8393 H         1 <0>         0.0606
     71 H33         1.6466    5.3535   -8.6384 H         1 <0>         0.0579
     72 H34         1.6137    8.2608   -4.8719 H         1 <0>         0.0571
     73 H35         0.0315    8.1861   -5.6617 H         1 <0>         0.0503
     74 H36         2.4714    3.0747   -8.2388 H         1 <0>         0.0993
     75 H37        -2.3461    2.9648  -12.4248 H         1 <0>         0.3700
     76 H38        -2.3015    4.7109  -12.4784 H         1 <0>         0.3660
     77 H39         0.9557   10.5154   -5.5293 H         1 <0>         0.3465
     78 H40         1.3102   10.0373   -7.1723 H         1 <0>         0.3446
     79 H41         3.8628    4.7589   -4.5500 H         1 <0>         0.3148
     80 H42         0.1596    3.2148   -6.4798 H         1 <0>         0.3220
@<TRIPOS>BOND
     1    1    2 ar
     2    1    3 ar
     3    2    4 ar
     4    3    5 ar
     5    4    6 ar
     6    5    6 ar
     7    6   23 1
     8    7   22 1
     9    7   29 am
    10    7   35 2
    11    8    9 1
    12    8   28 1
    13    8   36 2
    14    9   33 am
    15    9   37 2
    16   10   20 1
    17   10   34 am
    18   10   38 2
    19   11   12 1
    20   11   13 1
    21   12   14 1
    22   13   15 1
    23   14   21 1
    24   15   21 1
    25   16   18 1
    26   16   20 1
    27   17   19 1
    28   17   22 1
    29   18   30 1
    30   19   30 1
    31   20   29 1
    32   21   33 1
    33   22   23 1
    34   22   31 1
    35   24   25 1
    36   24   26 1
    37   25   27 1
    38   26   28 1
    39   27   32 1
    40   28   34 1
    41   29   30 1
    42    1   39 1
    43    2   40 1
    44    3   41 1
    45    4   42 1
    46    5   43 1
    47   11   44 1
    48   11   45 1
    49   12   46 1
    50   12   47 1
    51   13   48 1
    52   13   49 1
    53   14   50 1
    54   14   51 1
    55   15   52 1
    56   15   53 1
    57   16   54 1
    58   16   55 1
    59   17   56 1
    60   17   57 1
    61   18   58 1
    62   18   59 1
    63   19   60 1
    64   19   61 1
    65   20   62 1
    66   21   63 1
    67   23   64 1
    68   23   65 1
    69   24   66 1
    70   24   67 1
    71   25   68 1
    72   25   69 1
    73   26   70 1
    74   26   71 1
    75   27   72 1
    76   27   73 1
    77   28   74 1
    78   31   75 1
    79   31   76 1
    80   32   77 1
    81   32   78 1
    82   33   79 1
    83   34   80 1
@<TRIPOS>MOLECULE
1a46_ligand_89
   80    83     0     0     0
SMALL
USER_CHARGES

mmff94s_NoEstat = 82.96
@<TRIPOS>ATOM
      1 C1         11.1945    5.3647   -9.7731 C.ar      1 <0>        -0.1300
      2 C2         11.8337    5.1154   -8.5586 C.ar      1 <0>        -0.1323
      3 C3          9.8873    5.8513   -9.7863 C.ar      1 <0>        -0.1309
      4 C4         11.1656    5.3526   -7.3573 C.ar      1 <0>        -0.1275
      5 C5          9.2192    6.0884   -8.5850 C.ar      1 <0>        -0.1272
      6 C6          9.8628    5.8375   -7.3783 C.ar      1 <0>        -0.0843
      7 C7          7.6425    5.1042   -4.2977 C.2       1 <0>         0.6709
      8 C8          5.2358    2.3798    1.5634 C.2       1 <0>         0.4867
      9 C9          5.6522    1.1980    2.3894 C.2       1 <0>         0.5883
     10 C10         6.5256    3.6321   -1.6689 C.2       1 <0>         0.6572
     11 C11         2.4616   -2.5517    2.7858 C.3       1 <0>        -0.0802
     12 C12         2.7458   -1.3819    3.7243 C.3       1 <0>        -0.0765
     13 C13         3.3149   -2.4881    1.5218 C.3       1 <0>        -0.0774
     14 C14         4.2358   -1.2710    4.0502 C.3       1 <0>        -0.0953
     15 C15         4.8036   -2.3750    1.8530 C.3       1 <0>        -0.0906
     16 C16         4.6595    3.2577   -3.3009 C.3       1 <0>        -0.0871
     17 C17         7.3760    4.3986   -6.7074 C.3       1 <0>        -0.0716
     18 C18         5.3367    2.3027   -4.2819 C.3       1 <0>         0.1333
     19 C19         6.2012    3.5529   -6.1864 C.3       1 <0>         0.1246
     20 C20         5.7868    4.1659   -2.8575 C.3       1 <0>         0.0606
     21 C21         5.1166   -1.2051    2.7954 C.3       1 <0>         0.1012
     22 C22         8.3797    4.8486   -5.6198 C.3       1 <0>         0.1554
     23 C23         9.1441    6.0926   -6.0861 C.3       1 <0>        -0.0356
     24 C24         6.0158    5.3379    2.0114 C.3       1 <0>        -0.0795
     25 C25         6.7209    6.4716    2.7653 C.3       1 <0>        -0.1203
     26 C26         6.9719    4.2276    1.5544 C.3       1 <0>        -0.0920
     27 C27         5.7742    7.5909    3.1979 C.3       1 <0>         0.1502
     28 C28         6.2906    3.1130    0.7514 C.3       1 <0>         0.0224
     29 N1          6.7058    4.1331   -3.9791 N.am      1 <0>        -0.3553
     30 N2          6.4777    3.0462   -4.8435 N.3       1 <0>        -0.4320
     31 N3          9.3531    3.7833   -5.3380 N.3       1 <0>        -0.9031
     32 N4          6.5168    8.6391    3.8900 N.3       1 <0>        -0.9068
     33 N5          4.9185    0.0703    2.1034 N.am      1 <0>        -0.5526
     34 N6          5.7762    3.5917   -0.5046 N.am      1 <0>        -0.5576
     35 O1          7.8821    6.0807   -3.5877 O.2       1 <0>        -0.6710
     36 O2          4.0675    2.7325    1.6631 O.2       1 <0>        -0.4901
     37 O3          6.5432    1.3575    3.2076 O.2       1 <0>        -0.5902
     38 O4          7.6924    3.2783   -1.7917 O.2       1 <0>        -0.5833
     39 H1         11.7147    5.1800  -10.7084 H         1 <0>         0.1320
     40 H2         12.8515    4.7366   -8.5485 H         1 <0>         0.1324
     41 H3          9.3897    6.0452  -10.7320 H         1 <0>         0.1328
     42 H4         11.6716    5.1554   -6.4159 H         1 <0>         0.1324
     43 H5          8.2009    6.4675   -8.6050 H         1 <0>         0.1434
     44 H6          2.6613   -3.4941    3.3107 H         1 <0>         0.0405
     45 H7          1.3999   -2.5575    2.5144 H         1 <0>         0.0421
     46 H8          2.3966   -0.4501    3.2632 H         1 <0>         0.0362
     47 H9          2.1760   -1.5088    4.6520 H         1 <0>         0.0439
     48 H10         3.1411   -3.3847    0.9159 H         1 <0>         0.0350
     49 H11         3.0040   -1.6300    0.9138 H         1 <0>         0.0428
     50 H12         4.4027   -0.3853    4.6752 H         1 <0>         0.0663
     51 H13         4.5329   -2.1422    4.6479 H         1 <0>         0.0466
     52 H14         5.1334   -3.3097    2.3243 H         1 <0>         0.0493
     53 H15         5.3727   -2.2712    0.9212 H         1 <0>         0.0520
     54 H16         3.9023    3.8458   -3.8340 H         1 <0>         0.0915
     55 H17         4.1709    2.7289   -2.4768 H         1 <0>         0.0601
     56 H18         7.9078    3.8408   -7.4902 H         1 <0>         0.0688
     57 H19         6.9559    5.2827   -7.2061 H         1 <0>         0.0630
     58 H20         5.7303    1.4383   -3.7336 H         1 <0>         0.0807
     59 H21         4.6390    1.9190   -5.0344 H         1 <0>         0.0380
     60 H22         5.2889    4.1652   -6.1941 H         1 <0>         0.0484
     61 H23         6.0298    2.7205   -6.8794 H         1 <0>         0.0697
     62 H24         5.4651    5.1881   -2.6391 H         1 <0>         0.0843
     63 H25         6.1733   -1.2308    3.0814 H         1 <0>         0.0831
     64 H26         9.8520    6.3858   -5.3087 H         1 <0>         0.0704
     65 H27         8.4405    6.9195   -6.1990 H         1 <0>         0.0718
     66 H28         5.2579    4.9142    2.6804 H         1 <0>         0.0606
     67 H29         5.4809    5.7546    1.1500 H         1 <0>         0.0458
     68 H30         7.2000    6.0392    3.6534 H         1 <0>         0.0375
     69 H31         7.5258    6.8807    2.1417 H         1 <0>         0.0392
     70 H32         7.4599    3.7926    2.4354 H         1 <0>         0.0606
     71 H33         7.7645    4.6634    0.9347 H         1 <0>         0.0579
     72 H34         4.9986    7.1962    3.8630 H         1 <0>         0.0571
     73 H35         5.2784    8.0349    2.3297 H         1 <0>         0.0503
     74 H36         7.0421    2.3587    0.4881 H         1 <0>         0.0993
     75 H37         9.0331    2.8434   -5.3754 H         1 <0>         0.3700
     76 H38        10.2196    4.0460   -4.9287 H         1 <0>         0.3660
     77 H39         5.9996    9.3711    4.3277 H         1 <0>         0.3465
     78 H40         7.4997    8.7018    3.7315 H         1 <0>         0.3446
     79 H41         4.2076    0.1245    1.3800 H         1 <0>         0.3148
     80 H42         4.8120    3.9176   -0.5391 H         1 <0>         0.3220
@<TRIPOS>BOND
     1    1    2 ar
     2    1    3 ar
     3    2    4 ar
     4    3    5 ar
     5    4    6 ar
     6    5    6 ar
     7    6   23 1
     8    7   22 1
     9    7   29 am
    10    7   35 2
    11    8    9 1
    12    8   28 1
    13    8   36 2
    14    9   33 am
    15    9   37 2
    16   10   20 1
    17   10   34 am
    18   10   38 2
    19   11   12 1
    20   11   13 1
    21   12   14 1
    22   13   15 1
    23   14   21 1
    24   15   21 1
    25   16   18 1
    26   16   20 1
    27   17   19 1
    28   17   22 1
    29   18   30 1
    30   19   30 1
    31   20   29 1
    32   21   33 1
    33   22   23 1
    34   22   31 1
    35   24   25 1
    36   24   26 1
    37   25   27 1
    38   26   28 1
    39   27   32 1
    40   28   34 1
    41   29   30 1
    42    1   39 1
    43    2   40 1
    44    3   41 1
    45    4   42 1
    46    5   43 1
    47   11   44 1
    48   11   45 1
    49   12   46 1
    50   12   47 1
    51   13   48 1
    52   13   49 1
    53   14   50 1
    54   14   51 1
    55   15   52 1
    56   15   53 1
    57   16   54 1
    58   16   55 1
    59   17   56 1
    60   17   57 1
    61   18   58 1
    62   18   59 1
    63   19   60 1
    64   19   61 1
    65   20   62 1
    66   21   63 1
    67   23   64 1
    68   23   65 1
    69   24   66 1
    70   24   67 1
    71   25   68 1
    72   25   69 1
    73   26   70 1
    74   26   71 1
    75   27   72 1
    76   27   73 1
    77   28   74 1
    78   31   75 1
    79   31   76 1
    80   32   77 1
    81   32   78 1
    82   33   79 1
    83   34   80 1
@<TRIPOS>MOLECULE
1a46_ligand_90
   80    83     0     0     0
SMALL
USER_CHARGES

mmff94s_NoEstat = 82.98
@<TRIPOS>ATOM
      1 C1          1.7409   12.3935   -1.5361 C.ar      1 <0>        -0.1300
      2 C2          2.2430   11.8090   -0.3734 C.ar      1 <0>        -0.1323
      3 C3          1.4857   11.6057   -2.6586 C.ar      1 <0>        -0.1309
      4 C4          2.4901   10.4368   -0.3331 C.ar      1 <0>        -0.1275
      5 C5          1.7328   10.2334   -2.6183 C.ar      1 <0>        -0.1272
      6 C6          2.2334    9.6580   -1.4559 C.ar      1 <0>        -0.0843
      7 C7          4.2075    6.3518   -1.8158 C.2       1 <0>         0.6709
      8 C8          5.2358    2.3798    1.5634 C.2       1 <0>         0.4867
      9 C9          4.0737    1.7586    0.8450 C.2       1 <0>         0.5883
     10 C10         6.5648    4.1956   -1.4701 C.2       1 <0>         0.6572
     11 C11         4.0644   -3.1378    0.1954 C.3       1 <0>        -0.0802
     12 C12         4.9349   -2.3079   -0.7445 C.3       1 <0>        -0.0765
     13 C13         3.3449   -2.2675    1.2224 C.3       1 <0>        -0.0774
     14 C14         4.1346   -1.1879   -1.4107 C.3       1 <0>        -0.0953
     15 C15         2.5480   -1.1477    0.5515 C.3       1 <0>        -0.0906
     16 C16         6.7154    4.7360   -3.9137 C.3       1 <0>        -0.0871
     17 C17         4.1811    8.4057   -3.2842 C.3       1 <0>        -0.0716
     18 C18         7.2083    6.1802   -3.8482 C.3       1 <0>         0.1333
     19 C19         5.3192    7.7064   -4.0474 C.3       1 <0>         0.1246
     20 C20         5.8189    4.6139   -2.6998 C.3       1 <0>         0.0606
     21 C21         3.4011   -0.2972   -0.3991 C.3       1 <0>         0.1012
     22 C22         3.9302    7.8611   -1.8583 C.3       1 <0>         0.1554
     23 C23         2.4991    8.1819   -1.4126 C.3       1 <0>        -0.0356
     24 C24         6.0158    5.3379    2.0114 C.3       1 <0>        -0.0795
     25 C25         6.7209    6.4716    2.7653 C.3       1 <0>        -0.1203
     26 C26         6.9719    4.2276    1.5544 C.3       1 <0>        -0.0920
     27 C27         5.7742    7.5909    3.1979 C.3       1 <0>         0.1502
     28 C28         6.2906    3.1130    0.7514 C.3       1 <0>         0.0224
     29 N1          5.3643    5.9735   -2.4795 N.am      1 <0>        -0.3553
     30 N2          6.1593    6.9309   -3.1367 N.3       1 <0>        -0.4320
     31 N3          4.8633    8.4685   -0.8981 N.3       1 <0>        -0.9031
     32 N4          6.5168    8.6391    3.8900 N.3       1 <0>        -0.9068
     33 N5          4.3625    0.5037    0.3619 N.am      1 <0>        -0.5526
     34 N6          5.7762    3.5917   -0.5046 N.am      1 <0>        -0.5576
     35 O1          3.4676    5.5621   -1.2293 O.2       1 <0>        -0.6710
     36 O2          5.3022    2.1819    2.7699 O.2       1 <0>        -0.4901
     37 O3          3.0463    2.4099    0.7491 O.2       1 <0>        -0.5902
     38 O4          7.7705    4.4014   -1.3956 O.2       1 <0>        -0.5833
     39 H1          1.5486   13.4619   -1.5674 H         1 <0>         0.1320
     40 H2          2.4416   12.4225    0.5006 H         1 <0>         0.1324
     41 H3          1.0949   12.0609   -3.5639 H         1 <0>         0.1328
     42 H4          2.8813    9.9902    0.5771 H         1 <0>         0.1324
     43 H5          1.5311    9.6276   -3.4978 H         1 <0>         0.1434
     44 H6          3.3227   -3.6924   -0.3927 H         1 <0>         0.0405
     45 H7          4.6827   -3.8816    0.7106 H         1 <0>         0.0421
     46 H8          5.7747   -1.8806   -0.1833 H         1 <0>         0.0362
     47 H9          5.3667   -2.9577   -1.5143 H         1 <0>         0.0439
     48 H10         2.6703   -2.8890    1.8223 H         1 <0>         0.0350
     49 H11         4.0784   -1.8371    1.9148 H         1 <0>         0.0428
     50 H12         4.8088   -0.5817   -2.0279 H         1 <0>         0.0663
     51 H13         3.3981   -1.6353   -2.0902 H         1 <0>         0.0466
     52 H14         1.7203   -1.5929   -0.0152 H         1 <0>         0.0493
     53 H15         2.0985   -0.5129    1.3247 H         1 <0>         0.0520
     54 H16         6.1203    4.5986   -4.8250 H         1 <0>         0.0915
     55 H17         7.5395    4.0162   -3.9259 H         1 <0>         0.0601
     56 H18         4.3839    9.4843   -3.2353 H         1 <0>         0.0688
     57 H19         3.2652    8.3026   -3.8819 H         1 <0>         0.0630
     58 H20         8.1249    6.2239   -3.2478 H         1 <0>         0.0807
     59 H21         7.4504    6.5803   -4.8390 H         1 <0>         0.0380
     60 H22         4.8852    7.0622   -4.8247 H         1 <0>         0.0484
     61 H23         5.9181    8.4662   -4.5637 H         1 <0>         0.0697
     62 H24         4.9753    3.9333   -2.8455 H         1 <0>         0.0843
     63 H25         2.7649    0.4200   -0.9282 H         1 <0>         0.0831
     64 H26         2.3479    7.7977   -0.4022 H         1 <0>         0.0704
     65 H27         1.7988    7.6502   -2.0594 H         1 <0>         0.0718
     66 H28         5.2579    4.9142    2.6804 H         1 <0>         0.0606
     67 H29         5.4809    5.7546    1.1500 H         1 <0>         0.0458
     68 H30         7.2000    6.0392    3.6534 H         1 <0>         0.0375
     69 H31         7.5258    6.8807    2.1417 H         1 <0>         0.0392
     70 H32         7.4599    3.7926    2.4354 H         1 <0>         0.0606
     71 H33         7.7645    4.6634    0.9347 H         1 <0>         0.0579
     72 H34         4.9986    7.1962    3.8630 H         1 <0>         0.0571
     73 H35         5.2784    8.0349    2.3297 H         1 <0>         0.0503
     74 H36         7.0421    2.3587    0.4881 H         1 <0>         0.0993
     75 H37         5.7856    8.6648   -1.2112 H         1 <0>         0.3700
     76 H38         4.6041    8.4681    0.0612 H         1 <0>         0.3660
     77 H39         5.9996    9.3711    4.3277 H         1 <0>         0.3465
     78 H40         7.4997    8.7018    3.7315 H         1 <0>         0.3446
     79 H41         5.2837    0.1150    0.5408 H         1 <0>         0.3148
     80 H42         4.7816    3.4809   -0.6931 H         1 <0>         0.3220
@<TRIPOS>BOND
     1    1    2 ar
     2    1    3 ar
     3    2    4 ar
     4    3    5 ar
     5    4    6 ar
     6    5    6 ar
     7    6   23 1
     8    7   22 1
     9    7   29 am
    10    7   35 2
    11    8    9 1
    12    8   28 1
    13    8   36 2
    14    9   33 am
    15    9   37 2
    16   10   20 1
    17   10   34 am
    18   10   38 2
    19   11   12 1
    20   11   13 1
    21   12   14 1
    22   13   15 1
    23   14   21 1
    24   15   21 1
    25   16   18 1
    26   16   20 1
    27   17   19 1
    28   17   22 1
    29   18   30 1
    30   19   30 1
    31   20   29 1
    32   21   33 1
    33   22   23 1
    34   22   31 1
    35   24   25 1
    36   24   26 1
    37   25   27 1
    38   26   28 1
    39   27   32 1
    40   28   34 1
    41   29   30 1
    42    1   39 1
    43    2   40 1
    44    3   41 1
    45    4   42 1
    46    5   43 1
    47   11   44 1
    48   11   45 1
    49   12   46 1
    50   12   47 1
    51   13   48 1
    52   13   49 1
    53   14   50 1
    54   14   51 1
    55   15   52 1
    56   15   53 1
    57   16   54 1
    58   16   55 1
    59   17   56 1
    60   17   57 1
    61   18   58 1
    62   18   59 1
    63   19   60 1
    64   19   61 1
    65   20   62 1
    66   21   63 1
    67   23   64 1
    68   23   65 1
    69   24   66 1
    70   24   67 1
    71   25   68 1
    72   25   69 1
    73   26   70 1
    74   26   71 1
    75   27   72 1
    76   27   73 1
    77   28   74 1
    78   31   75 1
    79   31   76 1
    80   32   77 1
    81   32   78 1
    82   33   79 1
    83   34   80 1
@<TRIPOS>MOLECULE
1a46_ligand_91
   80    83     0     0     0
SMALL
USER_CHARGES

mmff94s_NoEstat = 82.99
@<TRIPOS>ATOM
      1 C1          8.7841   12.3584   -5.8200 C.ar      1 <0>        -0.1300
      2 C2          9.2413   12.0197   -4.5466 C.ar      1 <0>        -0.1323
      3 C3          7.6186   11.7776   -6.3200 C.ar      1 <0>        -0.1309
      4 C4          8.5332   11.1000   -3.7731 C.ar      1 <0>        -0.1275
      5 C5          6.9105   10.8578   -5.5465 C.ar      1 <0>        -0.1272
      6 C6          7.3724   10.5251   -4.2781 C.ar      1 <0>        -0.0843
      7 C7          6.3227    7.0882   -2.8484 C.2       1 <0>         0.6709
      8 C8          5.2358    2.3798    1.5634 C.2       1 <0>         0.4867
      9 C9          5.6457    1.7076    2.8411 C.2       1 <0>         0.5883
     10 C10         6.5648    4.1956   -1.4701 C.2       1 <0>         0.6572
     11 C11         7.4984   -2.8604    2.5281 C.3       1 <0>        -0.0802
     12 C12         6.0870   -2.3778    2.8521 C.3       1 <0>        -0.0765
     13 C13         8.4450   -1.6988    2.2377 C.3       1 <0>        -0.0774
     14 C14         6.0898   -1.3509    3.9853 C.3       1 <0>        -0.0953
     15 C15         8.4424   -0.6737    3.3726 C.3       1 <0>        -0.0906
     16 C16         5.9150    3.5956   -3.8160 C.3       1 <0>        -0.0871
     17 C17         6.9686    7.7509   -5.1976 C.3       1 <0>        -0.0716
     18 C18         7.1782    4.0100   -4.5681 C.3       1 <0>         0.1333
     19 C19         6.8896    6.2440   -5.4973 C.3       1 <0>         0.1246
     20 C20         5.8189    4.6139   -2.6998 C.3       1 <0>         0.0606
     21 C21         7.0342   -0.1713    3.7178 C.3       1 <0>         0.1012
     22 C22         7.0990    8.1048   -3.6974 C.3       1 <0>         0.1554
     23 C23         6.6107    9.5357   -3.4460 C.3       1 <0>        -0.0356
     24 C24         6.0158    5.3379    2.0114 C.3       1 <0>        -0.0795
     25 C25         6.7209    6.4716    2.7653 C.3       1 <0>        -0.1203
     26 C26         6.9719    4.2276    1.5544 C.3       1 <0>        -0.0920
     27 C27         5.7742    7.5909    3.1979 C.3       1 <0>         0.1502
     28 C28         6.2906    3.1130    0.7514 C.3       1 <0>         0.0224
     29 N1          6.5058    5.7713   -3.2406 N.am      1 <0>        -0.3553
     30 N2          7.3227    5.4587   -4.3431 N.3       1 <0>        -0.4320
     31 N3          8.4993    8.0079   -3.2602 N.3       1 <0>        -0.9031
     32 N4          6.5168    8.6391    3.8900 N.3       1 <0>        -0.9068
     33 N5          6.5118    0.6599    2.6310 N.am      1 <0>        -0.5526
     34 N6          5.7762    3.5917   -0.5046 N.am      1 <0>        -0.5576
     35 O1          5.6162    7.4259   -1.8987 O.2       1 <0>        -0.6710
     36 O2          4.0412    2.3628    1.2952 O.2       1 <0>        -0.4901
     37 O3          5.1730    2.1266    3.8850 O.2       1 <0>        -0.5902
     38 O4          7.7705    4.4014   -1.3956 O.2       1 <0>        -0.5833
     39 H1          9.3355   13.0745   -6.4223 H         1 <0>         0.1320
     40 H2         10.1488   12.4721   -4.1574 H         1 <0>         0.1324
     41 H3          7.2628   12.0413   -7.3117 H         1 <0>         0.1328
     42 H4          8.8970   10.8421   -2.7820 H         1 <0>         0.1324
     43 H5          6.0035   10.4103   -5.9443 H         1 <0>         0.1434
     44 H6          7.8861   -3.4409    3.3744 H         1 <0>         0.0405
     45 H7          7.4684   -3.5363    1.6660 H         1 <0>         0.0421
     46 H8          5.6358   -1.9383    1.9543 H         1 <0>         0.0362
     47 H9          5.4623   -3.2331    3.1340 H         1 <0>         0.0439
     48 H10         9.4616   -2.0812    2.0913 H         1 <0>         0.0350
     49 H11         8.1510   -1.2136    1.2991 H         1 <0>         0.0428
     50 H12         5.0674   -0.9870    4.1440 H         1 <0>         0.0663
     51 H13         6.3973   -1.8492    4.9135 H         1 <0>         0.0466
     52 H14         8.8852   -1.1330    4.2655 H         1 <0>         0.0493
     53 H15         9.0866    0.1701    3.0968 H         1 <0>         0.0520
     54 H16         5.0489    3.6975   -4.4816 H         1 <0>         0.0915
     55 H17         5.9620    2.5605   -3.4641 H         1 <0>         0.0601
     56 H18         7.8089    8.1894   -5.7531 H         1 <0>         0.0688
     57 H19         6.0643    8.2210   -5.6074 H         1 <0>         0.0630
     58 H20         8.0462    3.5082   -4.1236 H         1 <0>         0.0807
     59 H21         7.1438    3.7229   -5.6248 H         1 <0>         0.0380
     60 H22         5.8587    5.9894   -5.7800 H         1 <0>         0.0484
     61 H23         7.5203    6.0225   -6.3666 H         1 <0>         0.0697
     62 H24         4.7909    4.8594   -2.4187 H         1 <0>         0.0843
     63 H25         7.0767    0.4778    4.5987 H         1 <0>         0.0831
     64 H26         6.7207    9.7666   -2.3849 H         1 <0>         0.0704
     65 H27         5.5439    9.5911   -3.6710 H         1 <0>         0.0718
     66 H28         5.2579    4.9142    2.6804 H         1 <0>         0.0606
     67 H29         5.4809    5.7546    1.1500 H         1 <0>         0.0458
     68 H30         7.2000    6.0392    3.6534 H         1 <0>         0.0375
     69 H31         7.5258    6.8807    2.1417 H         1 <0>         0.0392
     70 H32         7.4599    3.7926    2.4354 H         1 <0>         0.0606
     71 H33         7.7645    4.6634    0.9347 H         1 <0>         0.0579
     72 H34         4.9986    7.1962    3.8630 H         1 <0>         0.0571
     73 H35         5.2784    8.0349    2.3297 H         1 <0>         0.0503
     74 H36         7.0421    2.3587    0.4881 H         1 <0>         0.0993
     75 H37         9.0611    7.2946   -3.6639 H         1 <0>         0.3700
     76 H38         8.7654    8.5137   -2.4473 H         1 <0>         0.3660
     77 H39         5.9996    9.3711    4.3277 H         1 <0>         0.3465
     78 H40         7.4997    8.7018    3.7315 H         1 <0>         0.3446
     79 H41         6.8020    0.4535    1.6799 H         1 <0>         0.3148
     80 H42         4.7816    3.4809   -0.6931 H         1 <0>         0.3220
@<TRIPOS>BOND
     1    1    2 ar
     2    1    3 ar
     3    2    4 ar
     4    3    5 ar
     5    4    6 ar
     6    5    6 ar
     7    6   23 1
     8    7   22 1
     9    7   29 am
    10    7   35 2
    11    8    9 1
    12    8   28 1
    13    8   36 2
    14    9   33 am
    15    9   37 2
    16   10   20 1
    17   10   34 am
    18   10   38 2
    19   11   12 1
    20   11   13 1
    21   12   14 1
    22   13   15 1
    23   14   21 1
    24   15   21 1
    25   16   18 1
    26   16   20 1
    27   17   19 1
    28   17   22 1
    29   18   30 1
    30   19   30 1
    31   20   29 1
    32   21   33 1
    33   22   23 1
    34   22   31 1
    35   24   25 1
    36   24   26 1
    37   25   27 1
    38   26   28 1
    39   27   32 1
    40   28   34 1
    41   29   30 1
    42    1   39 1
    43    2   40 1
    44    3   41 1
    45    4   42 1
    46    5   43 1
    47   11   44 1
    48   11   45 1
    49   12   46 1
    50   12   47 1
    51   13   48 1
    52   13   49 1
    53   14   50 1
    54   14   51 1
    55   15   52 1
    56   15   53 1
    57   16   54 1
    58   16   55 1
    59   17   56 1
    60   17   57 1
    61   18   58 1
    62   18   59 1
    63   19   60 1
    64   19   61 1
    65   20   62 1
    66   21   63 1
    67   23   64 1
    68   23   65 1
    69   24   66 1
    70   24   67 1
    71   25   68 1
    72   25   69 1
    73   26   70 1
    74   26   71 1
    75   27   72 1
    76   27   73 1
    77   28   74 1
    78   31   75 1
    79   31   76 1
    80   32   77 1
    81   32   78 1
    82   33   79 1
    83   34   80 1
@<TRIPOS>MOLECULE
1a46_ligand_92
   80    83     0     0     0
SMALL
USER_CHARGES

mmff94s_NoEstat = 83.02
@<TRIPOS>ATOM
      1 C1         11.2754    4.8325   -9.0920 C.ar      1 <0>        -0.1300
      2 C2         11.7701    4.4180   -7.8554 C.ar      1 <0>        -0.1323
      3 C3         10.0202    5.4353   -9.1745 C.ar      1 <0>        -0.1309
      4 C4         11.0095    4.6062   -6.7014 C.ar      1 <0>        -0.1275
      5 C5          9.2596    5.6235   -8.0205 C.ar      1 <0>        -0.1272
      6 C6          9.7592    5.2077   -6.7914 C.ar      1 <0>        -0.0843
      7 C7          7.1956    4.4061   -4.0088 C.2       1 <0>         0.6709
      8 C8          5.2358    2.3798    1.5634 C.2       1 <0>         0.4867
      9 C9          3.8230    2.3549    1.0577 C.2       1 <0>         0.5883
     10 C10         5.7098    2.8119   -1.6475 C.2       1 <0>         0.6572
     11 C11         0.9283    6.1987    2.1728 C.3       1 <0>        -0.0802
     12 C12         1.0626    4.8284    2.8318 C.3       1 <0>        -0.0765
     13 C13         1.8872    6.3615    0.9964 C.3       1 <0>        -0.0774
     14 C14         0.9098    3.6972    1.8142 C.3       1 <0>        -0.0953
     15 C15         1.7320    5.2267   -0.0170 C.3       1 <0>        -0.0906
     16 C16         3.9879    2.7570   -3.4688 C.3       1 <0>        -0.0871
     17 C17         7.1089    3.9469   -6.4901 C.3       1 <0>        -0.0716
     18 C18         4.6769    1.8362   -4.4740 C.3       1 <0>         0.1333
     19 C19         5.8233    3.1683   -6.1618 C.3       1 <0>         0.1246
     20 C20         5.1372    3.5153   -2.8394 C.3       1 <0>         0.0606
     21 C21         1.8637    3.8371    0.6204 C.3       1 <0>         0.1012
     22 C22         8.0351    4.2042   -5.2782 C.3       1 <0>         0.1554
     23 C23         8.9412    5.4102   -5.5501 C.3       1 <0>        -0.0356
     24 C24         6.0158    5.3379    2.0114 C.3       1 <0>        -0.0795
     25 C25         6.7209    6.4716    2.7653 C.3       1 <0>        -0.1203
     26 C26         6.9719    4.2276    1.5544 C.3       1 <0>        -0.0920
     27 C27         7.4119    6.0077    4.0472 C.3       1 <0>         0.1502
     28 C28         6.2906    3.1130    0.7514 C.3       1 <0>         0.0224
     29 N1          6.1557    3.4998   -3.8720 N.am      1 <0>        -0.3553
     30 N2          5.9246    2.5201   -4.8556 N.3       1 <0>        -0.4320
     31 N3          8.8854    3.0337   -5.0159 N.3       1 <0>        -0.9031
     32 N4          8.0424    7.1400    4.7175 N.3       1 <0>        -0.9068
     33 N5          3.2455    3.6032    1.0456 N.am      1 <0>        -0.5526
     34 N6          5.7762    3.5917   -0.5046 N.am      1 <0>        -0.5576
     35 O1          7.4442    5.2891   -3.1880 O.2       1 <0>        -0.6710
     36 O2          5.4669    1.7271    2.5732 O.2       1 <0>        -0.4901
     37 O3          3.3466    1.2762    0.7444 O.2       1 <0>        -0.5902
     38 O4          6.0670    1.6440   -1.7490 O.2       1 <0>        -0.5833
     39 H1         11.8675    4.6858   -9.9905 H         1 <0>         0.1320
     40 H2         12.7474    3.9487   -7.7912 H         1 <0>         0.1324
     41 H3          9.6350    5.7578  -10.1374 H         1 <0>         0.1328
     42 H4         11.4031    4.2801   -5.7423 H         1 <0>         0.1324
     43 H5          8.2827    6.0940   -8.0945 H         1 <0>         0.1434
     44 H6         -0.1023    6.3323    1.8214 H         1 <0>         0.0405
     45 H7          1.1162    6.9843    2.9134 H         1 <0>         0.0421
     46 H8          2.0393    4.7542    3.3252 H         1 <0>         0.0362
     47 H9          0.3035    4.7219    3.6152 H         1 <0>         0.0439
     48 H10         1.7025    7.3222    0.5024 H         1 <0>         0.0350
     49 H11         2.9190    6.3892    1.3671 H         1 <0>         0.0428
     50 H12         1.0730    2.7362    2.3169 H         1 <0>         0.0663
     51 H13        -0.1236    3.6910    1.4448 H         1 <0>         0.0466
     52 H14         0.7459    5.3084   -0.4918 H         1 <0>         0.0493
     53 H15         2.4781    5.3493   -0.8115 H         1 <0>         0.0520
     54 H16         3.3373    3.4571   -4.0075 H         1 <0>         0.0915
     55 H17         3.3792    2.2031   -2.7476 H         1 <0>         0.0601
     56 H18         7.6671    3.4155   -7.2730 H         1 <0>         0.0688
     57 H19         6.8138    4.9067   -6.9355 H         1 <0>         0.0630
     58 H20         4.9425    0.8939   -3.9800 H         1 <0>         0.0807
     59 H21         4.0270    1.5868   -5.3200 H         1 <0>         0.0380
     60 H22         4.9696    3.8594   -6.1912 H         1 <0>         0.0484
     61 H23         5.6526    2.4206   -6.9455 H         1 <0>         0.0697
     62 H24         4.8809    4.5388   -2.5517 H         1 <0>         0.0843
     63 H25         1.6435    3.0645   -0.1238 H         1 <0>         0.0831
     64 H26         9.5913    5.5668   -4.6874 H         1 <0>         0.0704
     65 H27         8.3224    6.3045   -5.6440 H         1 <0>         0.0718
     66 H28         5.2579    4.9142    2.6804 H         1 <0>         0.0606
     67 H29         5.4809    5.7546    1.1500 H         1 <0>         0.0458
     68 H30         7.4668    6.9122    2.0910 H         1 <0>         0.0375
     69 H31         5.9973    7.2642    2.9945 H         1 <0>         0.0392
     70 H32         7.4599    3.7926    2.4354 H         1 <0>         0.0606
     71 H33         7.7645    4.6634    0.9347 H         1 <0>         0.0579
     72 H34         8.1719    5.2532    3.8170 H         1 <0>         0.0571
     73 H35         6.6895    5.5581    4.7347 H         1 <0>         0.0503
     74 H36         7.0421    2.3587    0.4881 H         1 <0>         0.0993
     75 H37         8.4943    2.1340   -5.1738 H         1 <0>         0.3700
     76 H38         9.7264    3.1786   -4.5069 H         1 <0>         0.3660
     77 H39         8.6273    6.9547    5.5039 H         1 <0>         0.3465
     78 H40         7.7128    8.0567    4.5024 H         1 <0>         0.3446
     79 H41         3.8022    4.3983    1.3448 H         1 <0>         0.3148
     80 H42         5.4441    4.5531   -0.5557 H         1 <0>         0.3220
@<TRIPOS>BOND
     1    1    2 ar
     2    1    3 ar
     3    2    4 ar
     4    3    5 ar
     5    4    6 ar
     6    5    6 ar
     7    6   23 1
     8    7   22 1
     9    7   29 am
    10    7   35 2
    11    8    9 1
    12    8   28 1
    13    8   36 2
    14    9   33 am
    15    9   37 2
    16   10   20 1
    17   10   34 am
    18   10   38 2
    19   11   12 1
    20   11   13 1
    21   12   14 1
    22   13   15 1
    23   14   21 1
    24   15   21 1
    25   16   18 1
    26   16   20 1
    27   17   19 1
    28   17   22 1
    29   18   30 1
    30   19   30 1
    31   20   29 1
    32   21   33 1
    33   22   23 1
    34   22   31 1
    35   24   25 1
    36   24   26 1
    37   25   27 1
    38   26   28 1
    39   27   32 1
    40   28   34 1
    41   29   30 1
    42    1   39 1
    43    2   40 1
    44    3   41 1
    45    4   42 1
    46    5   43 1
    47   11   44 1
    48   11   45 1
    49   12   46 1
    50   12   47 1
    51   13   48 1
    52   13   49 1
    53   14   50 1
    54   14   51 1
    55   15   52 1
    56   15   53 1
    57   16   54 1
    58   16   55 1
    59   17   56 1
    60   17   57 1
    61   18   58 1
    62   18   59 1
    63   19   60 1
    64   19   61 1
    65   20   62 1
    66   21   63 1
    67   23   64 1
    68   23   65 1
    69   24   66 1
    70   24   67 1
    71   25   68 1
    72   25   69 1
    73   26   70 1
    74   26   71 1
    75   27   72 1
    76   27   73 1
    77   28   74 1
    78   31   75 1
    79   31   76 1
    80   32   77 1
    81   32   78 1
    82   33   79 1
    83   34   80 1
@<TRIPOS>MOLECULE
1a46_ligand_93
   80    83     0     0     0
SMALL
USER_CHARGES

mmff94s_NoEstat = 83.03
@<TRIPOS>ATOM
      1 C1          9.3427    1.2226  -10.2936 C.ar      1 <0>        -0.1300
      2 C2          9.9666    0.8172   -9.1138 C.ar      1 <0>        -0.1323
      3 C3          8.4336    2.2805  -10.2739 C.ar      1 <0>        -0.1309
      4 C4          9.6814    1.4695   -7.9143 C.ar      1 <0>        -0.1275
      5 C5          8.1485    2.9328   -9.0744 C.ar      1 <0>        -0.1272
      6 C6          8.7742    2.5231   -7.9024 C.ar      1 <0>        -0.0843
      7 C7          6.9710    3.2795   -4.5657 C.2       1 <0>         0.6709
      8 C8          5.2358    2.3798    1.5634 C.2       1 <0>         0.4867
      9 C9          5.6457    1.7076    2.8411 C.2       1 <0>         0.5883
     10 C10         5.7098    2.8119   -1.6475 C.2       1 <0>         0.6572
     11 C11         9.7235   -1.0796    2.8207 C.3       1 <0>        -0.0802
     12 C12         8.4526   -1.6930    2.2388 C.3       1 <0>        -0.0765
     13 C13         9.4972    0.3517    3.3002 C.3       1 <0>        -0.0774
     14 C14         7.2832   -1.6014    3.2201 C.3       1 <0>        -0.0953
     15 C15         8.3255    0.4384    4.2793 C.3       1 <0>        -0.0906
     16 C16         3.6624    3.2324   -3.0320 C.3       1 <0>        -0.0871
     17 C17         6.0388    2.5547   -6.7975 C.3       1 <0>        -0.0716
     18 C18         3.6514    1.9752   -3.8994 C.3       1 <0>         0.1333
     19 C19         4.6996    2.4463   -6.0480 C.3       1 <0>         0.1246
     20 C20         5.1372    3.5153   -2.8394 C.3       1 <0>         0.0606
     21 C21         7.0342   -0.1713    3.7178 C.3       1 <0>         0.1012
     22 C22         7.2891    2.5653   -5.8869 C.3       1 <0>         0.1554
     23 C23         8.4675    3.2247   -6.6121 C.3       1 <0>        -0.0356
     24 C24         8.0800    4.9598    0.7851 C.3       1 <0>        -0.0795
     25 C25         8.7880    6.0338    1.6192 C.3       1 <0>        -0.1203
     26 C26         6.9719    4.2276    1.5544 C.3       1 <0>        -0.0920
     27 C27         9.9095    6.7454    0.8629 C.3       1 <0>         0.1502
     28 C28         6.2906    3.1130    0.7514 C.3       1 <0>         0.0224
     29 N1          5.7488    2.9259   -4.0152 N.am      1 <0>        -0.3553
     30 N2          4.9069    2.0073   -4.6693 N.3       1 <0>        -0.4320
     31 N3          7.6768    1.1953   -5.5201 N.3       1 <0>        -0.9031
     32 N4          9.3732    7.4215   -0.3138 N.3       1 <0>        -0.9068
     33 N5          6.5118    0.6599    2.6310 N.am      1 <0>        -0.5526
     34 N6          5.7762    3.5917   -0.5046 N.am      1 <0>        -0.5576
     35 O1          7.7474    4.0812   -4.0464 O.2       1 <0>        -0.6710
     36 O2          4.0412    2.3628    1.2952 O.2       1 <0>        -0.4901
     37 O3          5.1730    2.1266    3.8850 O.2       1 <0>        -0.5902
     38 O4          6.0670    1.6440   -1.7490 O.2       1 <0>        -0.5833
     39 H1          9.5646    0.7147  -11.2275 H         1 <0>         0.1320
     40 H2         10.6743   -0.0064   -9.1292 H         1 <0>         0.1324
     41 H3          7.9478    2.5960  -11.1926 H         1 <0>         0.1328
     42 H4         10.1723    1.1467   -7.0000 H         1 <0>         0.1324
     43 H5          7.4388    3.7559   -9.0687 H         1 <0>         0.1434
     44 H6         10.0697   -1.6931    3.6617 H         1 <0>         0.0405
     45 H7         10.5190   -1.0948    2.0671 H         1 <0>         0.0421
     46 H8          8.1939   -1.1805    1.3044 H         1 <0>         0.0362
     47 H9          8.6355   -2.7431    1.9836 H         1 <0>         0.0439
     48 H10        10.4072    0.7253    3.7834 H         1 <0>         0.0350
     49 H11         9.3078    1.0008    2.4368 H         1 <0>         0.0428
     50 H12         6.3793   -1.9968    2.7410 H         1 <0>         0.0663
     51 H13         7.4938   -2.2464    4.0826 H         1 <0>         0.0466
     52 H14         8.5960   -0.0894    5.2028 H         1 <0>         0.0493
     53 H15         8.1600    1.4882    4.5503 H         1 <0>         0.0520
     54 H16         3.1996    4.0578   -3.5869 H         1 <0>         0.0915
     55 H17         3.1150    3.0948   -2.0945 H         1 <0>         0.0601
     56 H18         6.1186    1.7328   -7.5220 H         1 <0>         0.0688
     57 H19         6.0134    3.4760   -7.3953 H         1 <0>         0.0630
     58 H20         3.6705    1.0888   -3.2538 H         1 <0>         0.0807
     59 H21         2.7495    1.9066   -4.5175 H         1 <0>         0.0380
     60 H22         4.1937    3.4213   -6.0771 H         1 <0>         0.0484
     61 H23         4.0529    1.7380   -6.5798 H         1 <0>         0.0697
     62 H24         5.3721    4.5807   -2.7630 H         1 <0>         0.0843
     63 H25         6.2589   -0.1767    4.4911 H         1 <0>         0.0831
     64 H26         9.3395    3.2124   -5.9558 H         1 <0>         0.0704
     65 H27         8.2279    4.2735   -6.7972 H         1 <0>         0.0718
     66 H28         7.6494    5.4516   -0.0948 H         1 <0>         0.0606
     67 H29         8.8216    4.2418    0.4157 H         1 <0>         0.0458
     68 H30         8.0356    6.7709    1.9287 H         1 <0>         0.0375
     69 H31         9.1825    5.5824    2.5383 H         1 <0>         0.0392
     70 H32         6.2171    4.9575    1.8728 H         1 <0>         0.0606
     71 H33         7.3929    3.7874    2.4660 H         1 <0>         0.0579
     72 H34        10.6735    6.0252    0.5509 H         1 <0>         0.0571
     73 H35        10.3920    7.4923    1.5001 H         1 <0>         0.0503
     74 H36         7.0421    2.3587    0.4881 H         1 <0>         0.0993
     75 H37         6.9507    0.5323   -5.3773 H         1 <0>         0.3700
     76 H38         8.6161    1.0420   -5.2343 H         1 <0>         0.3660
     77 H39        10.0182    7.8250   -0.9589 H         1 <0>         0.3465
     78 H40         8.3988    7.6342   -0.3305 H         1 <0>         0.3446
     79 H41         6.8020    0.4535    1.6799 H         1 <0>         0.3148
     80 H42         5.4441    4.5531   -0.5557 H         1 <0>         0.3220
@<TRIPOS>BOND
     1    1    2 ar
     2    1    3 ar
     3    2    4 ar
     4    3    5 ar
     5    4    6 ar
     6    5    6 ar
     7    6   23 1
     8    7   22 1
     9    7   29 am
    10    7   35 2
    11    8    9 1
    12    8   28 1
    13    8   36 2
    14    9   33 am
    15    9   37 2
    16   10   20 1
    17   10   34 am
    18   10   38 2
    19   11   12 1
    20   11   13 1
    21   12   14 1
    22   13   15 1
    23   14   21 1
    24   15   21 1
    25   16   18 1
    26   16   20 1
    27   17   19 1
    28   17   22 1
    29   18   30 1
    30   19   30 1
    31   20   29 1
    32   21   33 1
    33   22   23 1
    34   22   31 1
    35   24   25 1
    36   24   26 1
    37   25   27 1
    38   26   28 1
    39   27   32 1
    40   28   34 1
    41   29   30 1
    42    1   39 1
    43    2   40 1
    44    3   41 1
    45    4   42 1
    46    5   43 1
    47   11   44 1
    48   11   45 1
    49   12   46 1
    50   12   47 1
    51   13   48 1
    52   13   49 1
    53   14   50 1
    54   14   51 1
    55   15   52 1
    56   15   53 1
    57   16   54 1
    58   16   55 1
    59   17   56 1
    60   17   57 1
    61   18   58 1
    62   18   59 1
    63   19   60 1
    64   19   61 1
    65   20   62 1
    66   21   63 1
    67   23   64 1
    68   23   65 1
    69   24   66 1
    70   24   67 1
    71   25   68 1
    72   25   69 1
    73   26   70 1
    74   26   71 1
    75   27   72 1
    76   27   73 1
    77   28   74 1
    78   31   75 1
    79   31   76 1
    80   32   77 1
    81   32   78 1
    82   33   79 1
    83   34   80 1
@<TRIPOS>MOLECULE
1a46_ligand_94
   80    83     0     0     0
SMALL
USER_CHARGES

mmff94s_NoEstat = 83.07
@<TRIPOS>ATOM
      1 C1          5.4266   13.4365   -3.4169 C.ar      1 <0>        -0.1300
      2 C2          5.8751   12.9626   -2.1841 C.ar      1 <0>        -0.1323
      3 C3          4.6702   12.6105   -4.2484 C.ar      1 <0>        -0.1309
      4 C4          5.5674   11.6626   -1.7828 C.ar      1 <0>        -0.1275
      5 C5          4.3625   11.3105   -3.8471 C.ar      1 <0>        -0.1272
      6 C6          4.8131   10.8451   -2.6169 C.ar      1 <0>        -0.0843
      7 C7          5.2227    7.0215   -2.2038 C.2       1 <0>         0.6709
      8 C8          5.2358    2.3798    1.5634 C.2       1 <0>         0.4867
      9 C9          5.6457    1.7076    2.8411 C.2       1 <0>         0.5883
     10 C10         6.5648    4.1956   -1.4701 C.2       1 <0>         0.6572
     11 C11         9.7235   -1.0796    2.8207 C.3       1 <0>        -0.0802
     12 C12         8.4526   -1.6930    2.2388 C.3       1 <0>        -0.0765
     13 C13         9.4972    0.3517    3.3002 C.3       1 <0>        -0.0774
     14 C14         7.2832   -1.6014    3.2201 C.3       1 <0>        -0.0953
     15 C15         8.3255    0.4384    4.2793 C.3       1 <0>        -0.0906
     16 C16         6.4370    4.0713   -3.9709 C.3       1 <0>        -0.0871
     17 C17         5.7185    8.5126   -4.1803 C.3       1 <0>        -0.0716
     18 C18         7.4589    5.1398   -4.3541 C.3       1 <0>         0.1333
     19 C19         6.3195    7.2447   -4.8112 C.3       1 <0>         0.1246
     20 C20         5.8189    4.6139   -2.6998 C.3       1 <0>         0.0606
     21 C21         7.0342   -0.1713    3.7178 C.3       1 <0>         0.1012
     22 C22         5.5566    8.4542   -2.6431 C.3       1 <0>         0.1554
     23 C23         4.4821    9.4467   -2.1852 C.3       1 <0>        -0.0356
     24 C24         6.0158    5.3379    2.0114 C.3       1 <0>        -0.0795
     25 C25         6.7209    6.4716    2.7653 C.3       1 <0>        -0.1203
     26 C26         6.9719    4.2276    1.5544 C.3       1 <0>        -0.0920
     27 C27         5.7742    7.5909    3.1979 C.3       1 <0>         0.1502
     28 C28         6.2906    3.1130    0.7514 C.3       1 <0>         0.0224
     29 N1          5.9858    6.0487   -2.8308 N.am      1 <0>        -0.3553
     30 N2          6.9481    6.4032   -3.7946 N.3       1 <0>        -0.4320
     31 N3          6.8203    8.7957   -1.9738 N.3       1 <0>        -0.9031
     32 N4          6.5168    8.6391    3.8900 N.3       1 <0>        -0.9068
     33 N5          6.5118    0.6599    2.6310 N.am      1 <0>        -0.5526
     34 N6          5.7762    3.5917   -0.5046 N.am      1 <0>        -0.5576
     35 O1          4.3619    6.7750   -1.3592 O.2       1 <0>        -0.6710
     36 O2          4.0412    2.3628    1.2952 O.2       1 <0>        -0.4901
     37 O3          5.1730    2.1266    3.8850 O.2       1 <0>        -0.5902
     38 O4          7.7705    4.4014   -1.3956 O.2       1 <0>        -0.5833
     39 H1          5.6663   14.4486   -3.7294 H         1 <0>         0.1320
     40 H2          6.4640   13.6058   -1.5368 H         1 <0>         0.1324
     41 H3          4.3212   12.9796   -5.2084 H         1 <0>         0.1328
     42 H4          5.9211   11.3020   -0.8206 H         1 <0>         0.1324
     43 H5          3.7727   10.6741   -4.5015 H         1 <0>         0.1434
     44 H6         10.0697   -1.6931    3.6617 H         1 <0>         0.0405
     45 H7         10.5190   -1.0948    2.0671 H         1 <0>         0.0421
     46 H8          8.1939   -1.1805    1.3044 H         1 <0>         0.0362
     47 H9          8.6355   -2.7431    1.9836 H         1 <0>         0.0439
     48 H10        10.4072    0.7253    3.7834 H         1 <0>         0.0350
     49 H11         9.3078    1.0008    2.4368 H         1 <0>         0.0428
     50 H12         6.3793   -1.9968    2.7410 H         1 <0>         0.0663
     51 H13         7.4938   -2.2464    4.0826 H         1 <0>         0.0466
     52 H14         8.5960   -0.0894    5.2028 H         1 <0>         0.0493
     53 H15         8.1600    1.4882    4.5503 H         1 <0>         0.0520
     54 H16         5.6709    4.0073   -4.7535 H         1 <0>         0.0915
     55 H17         6.8936    3.0840   -3.8511 H         1 <0>         0.0601
     56 H18         6.3330    9.3815   -4.4524 H         1 <0>         0.0688
     57 H19         4.7383    8.6848   -4.6454 H         1 <0>         0.0630
     58 H20         8.4170    4.9158   -3.8698 H         1 <0>         0.0807
     59 H21         7.6408    5.1703   -5.4340 H         1 <0>         0.0380
     60 H22         5.5257    6.6966   -5.3375 H         1 <0>         0.0484
     61 H23         7.0554    7.5409   -5.5683 H         1 <0>         0.0697
     62 H24         4.7652    4.3476   -2.5772 H         1 <0>         0.0843
     63 H25         6.2589   -0.1767    4.4911 H         1 <0>         0.0831
     64 H26         4.3919    9.3954   -1.0986 H         1 <0>         0.0704
     65 H27         3.5182    9.1401   -2.5956 H         1 <0>         0.0718
     66 H28         5.2579    4.9142    2.6804 H         1 <0>         0.0606
     67 H29         5.4809    5.7546    1.1500 H         1 <0>         0.0458
     68 H30         7.2000    6.0392    3.6534 H         1 <0>         0.0375
     69 H31         7.5258    6.8807    2.1417 H         1 <0>         0.0392
     70 H32         7.4599    3.7926    2.4354 H         1 <0>         0.0606
     71 H33         7.7645    4.6634    0.9347 H         1 <0>         0.0579
     72 H34         4.9986    7.1962    3.8630 H         1 <0>         0.0571
     73 H35         5.2784    8.0349    2.3297 H         1 <0>         0.0503
     74 H36         7.0421    2.3587    0.4881 H         1 <0>         0.0993
     75 H37         7.6658    8.5036   -2.4065 H         1 <0>         0.3700
     76 H38         6.7736    9.1160   -1.0343 H         1 <0>         0.3660
     77 H39         5.9996    9.3711    4.3277 H         1 <0>         0.3465
     78 H40         7.4997    8.7018    3.7315 H         1 <0>         0.3446
     79 H41         6.8020    0.4535    1.6799 H         1 <0>         0.3148
     80 H42         4.7816    3.4809   -0.6931 H         1 <0>         0.3220
@<TRIPOS>BOND
     1    1    2 ar
     2    1    3 ar
     3    2    4 ar
     4    3    5 ar
     5    4    6 ar
     6    5    6 ar
     7    6   23 1
     8    7   22 1
     9    7   29 am
    10    7   35 2
    11    8    9 1
    12    8   28 1
    13    8   36 2
    14    9   33 am
    15    9   37 2
    16   10   20 1
    17   10   34 am
    18   10   38 2
    19   11   12 1
    20   11   13 1
    21   12   14 1
    22   13   15 1
    23   14   21 1
    24   15   21 1
    25   16   18 1
    26   16   20 1
    27   17   19 1
    28   17   22 1
    29   18   30 1
    30   19   30 1
    31   20   29 1
    32   21   33 1
    33   22   23 1
    34   22   31 1
    35   24   25 1
    36   24   26 1
    37   25   27 1
    38   26   28 1
    39   27   32 1
    40   28   34 1
    41   29   30 1
    42    1   39 1
    43    2   40 1
    44    3   41 1
    45    4   42 1
    46    5   43 1
    47   11   44 1
    48   11   45 1
    49   12   46 1
    50   12   47 1
    51   13   48 1
    52   13   49 1
    53   14   50 1
    54   14   51 1
    55   15   52 1
    56   15   53 1
    57   16   54 1
    58   16   55 1
    59   17   56 1
    60   17   57 1
    61   18   58 1
    62   18   59 1
    63   19   60 1
    64   19   61 1
    65   20   62 1
    66   21   63 1
    67   23   64 1
    68   23   65 1
    69   24   66 1
    70   24   67 1
    71   25   68 1
    72   25   69 1
    73   26   70 1
    74   26   71 1
    75   27   72 1
    76   27   73 1
    77   28   74 1
    78   31   75 1
    79   31   76 1
    80   32   77 1
    81   32   78 1
    82   33   79 1
    83   34   80 1
@<TRIPOS>MOLECULE
1a46_ligand_95
   80    83     0     0     0
SMALL
USER_CHARGES

mmff94s_NoEstat = 83.07
@<TRIPOS>ATOM
      1 C1          5.9504   -1.3642  -10.1903 C.ar      1 <0>        -0.1300
      2 C2          6.6765   -1.8241   -9.0918 C.ar      1 <0>        -0.1323
      3 C3          5.5463   -0.0305  -10.2504 C.ar      1 <0>        -0.1309
      4 C4          6.9984   -0.9504   -8.0532 C.ar      1 <0>        -0.1275
      5 C5          5.8681    0.8432   -9.2119 C.ar      1 <0>        -0.1272
      6 C6          6.5921    0.3776   -8.1201 C.ar      1 <0>        -0.0843
      7 C7          6.1974    2.2868   -4.7798 C.2       1 <0>         0.6709
      8 C8          5.2358    2.3798    1.5634 C.2       1 <0>         0.4867
      9 C9          5.6522    1.1980    2.3894 C.2       1 <0>         0.5883
     10 C10         5.7098    2.8119   -1.6475 C.2       1 <0>         0.6572
     11 C11         4.0322    0.9047    7.0463 C.3       1 <0>        -0.0802
     12 C12         5.2027    1.8445    6.7696 C.3       1 <0>        -0.0765
     13 C13         3.5408    0.2172    5.7752 C.3       1 <0>        -0.0774
     14 C14         6.3378    1.1287    6.0363 C.3       1 <0>        -0.0953
     15 C15         4.6799   -0.4951    5.0445 C.3       1 <0>        -0.0906
     16 C16         3.6723    3.8570   -2.6681 C.3       1 <0>        -0.0871
     17 C17         4.4858    1.7161   -6.5463 C.3       1 <0>        -0.0716
     18 C18         2.9535    2.6133   -3.1875 C.3       1 <0>         0.1333
     19 C19         3.4659    2.2898   -5.5476 C.3       1 <0>         0.1246
     20 C20         5.1372    3.5153   -2.8394 C.3       1 <0>         0.0606
     21 C21         5.8700    0.4288    4.7533 C.3       1 <0>         0.1012
     22 C22         5.8481    1.3265   -5.9256 C.3       1 <0>         0.1554
     23 C23         6.9383    1.3175   -7.0029 C.3       1 <0>        -0.0356
     24 C24         6.0158    5.3379    2.0114 C.3       1 <0>        -0.0795
     25 C25         6.7209    6.4716    2.7653 C.3       1 <0>        -0.1203
     26 C26         6.9719    4.2276    1.5544 C.3       1 <0>        -0.0920
     27 C27         5.7742    7.5909    3.1979 C.3       1 <0>         0.1502
     28 C28         6.2906    3.1130    0.7514 C.3       1 <0>         0.0224
     29 N1          5.1345    2.5635   -3.9339 N.am      1 <0>        -0.3553
     30 N2          3.8653    2.0037   -4.1710 N.3       1 <0>        -0.4320
     31 N3          5.7803   -0.0123   -5.3216 N.3       1 <0>        -0.9031
     32 N4          6.5168    8.6391    3.8900 N.3       1 <0>        -0.9068
     33 N5          5.5058    1.4204    3.7389 N.am      1 <0>        -0.5526
     34 N6          5.7762    3.5917   -0.5046 N.am      1 <0>        -0.5576
     35 O1          7.3278    2.7504   -4.6301 O.2       1 <0>        -0.6710
     36 O2          4.0675    2.7325    1.6631 O.2       1 <0>        -0.4901
     37 O3          6.0787    0.2146    1.8066 O.2       1 <0>        -0.5902
     38 O4          6.0670    1.6440   -1.7490 O.2       1 <0>        -0.5833
     39 H1          5.6997   -2.0446  -10.9989 H         1 <0>         0.1320
     40 H2          6.9911   -2.8626   -9.0451 H         1 <0>         0.1324
     41 H3          4.9808    0.3274  -11.1059 H         1 <0>         0.1328
     42 H4          7.5644   -1.3176   -7.2012 H         1 <0>         0.1324
     43 H5          5.5489    1.8806   -9.2673 H         1 <0>         0.1434
     44 H6          4.3425    0.1437    7.7730 H         1 <0>         0.0405
     45 H7          3.2093    1.4651    7.5043 H         1 <0>         0.0421
     46 H8          4.8545    2.6962    6.1728 H         1 <0>         0.0362
     47 H9          5.5771    2.2527    7.7153 H         1 <0>         0.0439
     48 H10         2.7581   -0.5070    6.0284 H         1 <0>         0.0350
     49 H11         3.0820    0.9603    5.1118 H         1 <0>         0.0428
     50 H12         7.1291    1.8519    5.8044 H         1 <0>         0.0663
     51 H13         6.7776    0.3814    6.7089 H         1 <0>         0.0466
     52 H14         5.0244   -1.3358    5.6600 H         1 <0>         0.0493
     53 H15         4.2965   -0.9219    4.1098 H         1 <0>         0.0520
     54 H16         3.4181    4.7133   -3.3051 H         1 <0>         0.0915
     55 H17         3.3944    4.0971   -1.6373 H         1 <0>         0.0601
     56 H18         4.0497    0.8441   -7.0524 H         1 <0>         0.0688
     57 H19         4.6431    2.4675   -7.3320 H         1 <0>         0.0630
     58 H20         2.8170    1.9026   -2.3635 H         1 <0>         0.0807
     59 H21         1.9588    2.8453   -3.5837 H         1 <0>         0.0380
     60 H22         3.3744    3.3723   -5.7123 H         1 <0>         0.0484
     61 H23         2.4818    1.8533   -5.7569 H         1 <0>         0.0697
     62 H24         5.7646    4.3810   -3.0694 H         1 <0>         0.0843
     63 H25         6.6942   -0.1508    4.3245 H         1 <0>         0.0831
     64 H26         7.8868    1.0311   -6.5450 H         1 <0>         0.0704
     65 H27         7.0672    2.3317   -7.3854 H         1 <0>         0.0718
     66 H28         5.2579    4.9142    2.6804 H         1 <0>         0.0606
     67 H29         5.4809    5.7546    1.1500 H         1 <0>         0.0458
     68 H30         7.2000    6.0392    3.6534 H         1 <0>         0.0375
     69 H31         7.5258    6.8807    2.1417 H         1 <0>         0.0392
     70 H32         7.4599    3.7926    2.4354 H         1 <0>         0.0606
     71 H33         7.7645    4.6634    0.9347 H         1 <0>         0.0579
     72 H34         4.9986    7.1962    3.8630 H         1 <0>         0.0571
     73 H35         5.2784    8.0349    2.3297 H         1 <0>         0.0503
     74 H36         7.0421    2.3587    0.4881 H         1 <0>         0.0993
     75 H37         4.9287   -0.2795   -4.8849 H         1 <0>         0.3700
     76 H38         6.6336   -0.5056   -5.1950 H         1 <0>         0.3660
     77 H39         5.9996    9.3711    4.3277 H         1 <0>         0.3465
     78 H40         7.4997    8.7018    3.7315 H         1 <0>         0.3446
     79 H41         5.1282    2.3120    4.0455 H         1 <0>         0.3148
     80 H42         5.4441    4.5531   -0.5557 H         1 <0>         0.3220
@<TRIPOS>BOND
     1    1    2 ar
     2    1    3 ar
     3    2    4 ar
     4    3    5 ar
     5    4    6 ar
     6    5    6 ar
     7    6   23 1
     8    7   22 1
     9    7   29 am
    10    7   35 2
    11    8    9 1
    12    8   28 1
    13    8   36 2
    14    9   33 am
    15    9   37 2
    16   10   20 1
    17   10   34 am
    18   10   38 2
    19   11   12 1
    20   11   13 1
    21   12   14 1
    22   13   15 1
    23   14   21 1
    24   15   21 1
    25   16   18 1
    26   16   20 1
    27   17   19 1
    28   17   22 1
    29   18   30 1
    30   19   30 1
    31   20   29 1
    32   21   33 1
    33   22   23 1
    34   22   31 1
    35   24   25 1
    36   24   26 1
    37   25   27 1
    38   26   28 1
    39   27   32 1
    40   28   34 1
    41   29   30 1
    42    1   39 1
    43    2   40 1
    44    3   41 1
    45    4   42 1
    46    5   43 1
    47   11   44 1
    48   11   45 1
    49   12   46 1
    50   12   47 1
    51   13   48 1
    52   13   49 1
    53   14   50 1
    54   14   51 1
    55   15   52 1
    56   15   53 1
    57   16   54 1
    58   16   55 1
    59   17   56 1
    60   17   57 1
    61   18   58 1
    62   18   59 1
    63   19   60 1
    64   19   61 1
    65   20   62 1
    66   21   63 1
    67   23   64 1
    68   23   65 1
    69   24   66 1
    70   24   67 1
    71   25   68 1
    72   25   69 1
    73   26   70 1
    74   26   71 1
    75   27   72 1
    76   27   73 1
    77   28   74 1
    78   31   75 1
    79   31   76 1
    80   32   77 1
    81   32   78 1
    82   33   79 1
    83   34   80 1
@<TRIPOS>MOLECULE
1a46_ligand_96
   80    83     0     0     0
SMALL
USER_CHARGES

mmff94s_NoEstat = 83.07
@<TRIPOS>ATOM
      1 C1         -2.6445   10.2618   -2.2387 C.ar      1 <0>        -0.1300
      2 C2         -2.3767    9.6884   -0.9957 C.ar      1 <0>        -0.1323
      3 C3         -2.1497    9.6701   -3.4009 C.ar      1 <0>        -0.1309
      4 C4         -1.6141    8.5233   -0.9148 C.ar      1 <0>        -0.1275
      5 C5         -1.3871    8.5049   -3.3201 C.ar      1 <0>        -0.1272
      6 C6         -1.1243    7.9391   -2.0776 C.ar      1 <0>        -0.0843
      7 C7          2.0326    5.7272   -1.7627 C.2       1 <0>         0.6709
      8 C8          5.2358    2.3798    1.5634 C.2       1 <0>         0.4867
      9 C9          4.9672    2.8271    2.9706 C.2       1 <0>         0.5883
     10 C10         4.7954    4.5647   -0.6048 C.2       1 <0>         0.6572
     11 C11         3.0566    7.3368    3.6101 C.3       1 <0>        -0.0802
     12 C12         4.4991    6.8448    3.6944 C.3       1 <0>        -0.0765
     13 C13         2.0921    6.2130    3.2404 C.3       1 <0>        -0.0774
     14 C14         4.6316    5.6493    4.6388 C.3       1 <0>        -0.0953
     15 C15         2.2302    5.0192    4.1862 C.3       1 <0>        -0.0906
     16 C16         5.5346    5.5870   -2.7713 C.3       1 <0>        -0.0871
     17 C17         1.6625    7.8714   -3.0437 C.3       1 <0>        -0.0716
     18 C18         5.3303    7.0689   -2.4625 C.3       1 <0>         0.1333
     19 C19         3.1731    7.8019   -3.3266 C.3       1 <0>         0.1246
     20 C20         4.4137    4.9104   -2.0113 C.3       1 <0>         0.0606
     21 C21         3.6721    4.5042    4.2884 C.3       1 <0>         0.1012
     22 C22         1.1885    7.0064   -1.8522 C.3       1 <0>         0.1554
     23 C23        -0.3040    6.6858   -1.9906 C.3       1 <0>        -0.0356
     24 C24         8.0800    4.9598    0.7851 C.3       1 <0>        -0.0795
     25 C25         8.7880    6.0338    1.6192 C.3       1 <0>        -0.1203
     26 C26         6.9719    4.2276    1.5544 C.3       1 <0>        -0.0920
     27 C27         9.9095    6.7454    0.8629 C.3       1 <0>         0.1502
     28 C28         6.2906    3.1130    0.7514 C.3       1 <0>         0.0224
     29 N1          3.3921    5.9372   -1.9343 N.am      1 <0>        -0.3553
     30 N2          3.8913    7.2279   -2.1903 N.3       1 <0>        -0.4320
     31 N3          1.3958    7.7147   -0.5806 N.3       1 <0>        -0.9031
     32 N4         10.5470    7.7366    1.7233 N.3       1 <0>        -0.9068
     33 N5          4.0751    3.8723    3.0302 N.am      1 <0>        -0.5526
     34 N6          5.7762    3.5917   -0.5046 N.am      1 <0>        -0.5576
     35 O1          1.5345    4.6231   -1.5437 O.2       1 <0>        -0.6710
     36 O2          4.5176    1.4899    1.1258 O.2       1 <0>        -0.4901
     37 O3          5.5575    2.2579    3.8741 O.2       1 <0>        -0.5902
     38 O4          4.2448    5.1367    0.3286 O.2       1 <0>        -0.5833
     39 H1         -3.2382   11.1691   -2.3016 H         1 <0>         0.1320
     40 H2         -2.7620   10.1493   -0.0908 H         1 <0>         0.1324
     41 H3         -2.3582   10.1168   -4.3687 H         1 <0>         0.1328
     42 H4         -1.4106    8.0836    0.0580 H         1 <0>         0.1324
     43 H5         -1.0058    8.0510   -4.2309 H         1 <0>         0.1434
     44 H6          2.7622    7.7634    4.5770 H         1 <0>         0.0405
     45 H7          2.9843    8.1431    2.8715 H         1 <0>         0.0421
     46 H8          4.8498    6.5672    2.6931 H         1 <0>         0.0362
     47 H9          5.1451    7.6594    4.0414 H         1 <0>         0.0439
     48 H10         1.0626    6.5878    3.2707 H         1 <0>         0.0350
     49 H11         2.2823    5.8929    2.2088 H         1 <0>         0.0428
     50 H12         5.6681    5.2911    4.6230 H         1 <0>         0.0663
     51 H13         4.4267    5.9838    5.6638 H         1 <0>         0.0466
     52 H14         1.8872    5.3174    5.1851 H         1 <0>         0.0493
     53 H15         1.5655    4.2145    3.8493 H         1 <0>         0.0520
     54 H16         5.4011    5.4209   -3.8475 H         1 <0>         0.0915
     55 H17         6.5319    5.2374   -2.4876 H         1 <0>         0.0601
     56 H18         1.3705    8.9173   -2.8778 H         1 <0>         0.0688
     57 H19         1.1370    7.5576   -3.9559 H         1 <0>         0.0630
     58 H20         5.8802    7.3284   -1.5498 H         1 <0>         0.0807
     59 H21         5.7080    7.7145   -3.2631 H         1 <0>         0.0380
     60 H22         3.3395    7.2079   -4.2360 H         1 <0>         0.0484
     61 H23         3.5406    8.8134   -3.5374 H         1 <0>         0.0697
     62 H24         4.0335    4.0099   -2.5019 H         1 <0>         0.0843
     63 H25         3.7338    3.7211    5.0512 H         1 <0>         0.0831
     64 H26        -0.6181    6.0842   -1.1357 H         1 <0>         0.0704
     65 H27        -0.4536    6.0709   -2.8800 H         1 <0>         0.0718
     66 H28         7.6494    5.4516   -0.0948 H         1 <0>         0.0606
     67 H29         8.8216    4.2418    0.4157 H         1 <0>         0.0458
     68 H30         8.0356    6.7709    1.9287 H         1 <0>         0.0375
     69 H31         9.1825    5.5824    2.5383 H         1 <0>         0.0392
     70 H32         6.2171    4.9575    1.8728 H         1 <0>         0.0606
     71 H33         7.3929    3.7874    2.4660 H         1 <0>         0.0579
     72 H34         9.5108    7.2416   -0.0285 H         1 <0>         0.0571
     73 H35        10.6706    6.0303    0.5375 H         1 <0>         0.0503
     74 H36         7.0421    2.3587    0.4881 H         1 <0>         0.0993
     75 H37         2.1998    8.2929   -0.4996 H         1 <0>         0.3700
     76 H38         0.8492    7.4324    0.1998 H         1 <0>         0.3660
     77 H39        11.2163    8.3531    1.3147 H         1 <0>         0.3465
     78 H40        10.4498    7.6340    2.7108 H         1 <0>         0.3446
     79 H41         3.6782    4.2214    2.1629 H         1 <0>         0.3148
     80 H42         6.1527    3.1949   -1.3636 H         1 <0>         0.3220
@<TRIPOS>BOND
     1    1    2 ar
     2    1    3 ar
     3    2    4 ar
     4    3    5 ar
     5    4    6 ar
     6    5    6 ar
     7    6   23 1
     8    7   22 1
     9    7   29 am
    10    7   35 2
    11    8    9 1
    12    8   28 1
    13    8   36 2
    14    9   33 am
    15    9   37 2
    16   10   20 1
    17   10   34 am
    18   10   38 2
    19   11   12 1
    20   11   13 1
    21   12   14 1
    22   13   15 1
    23   14   21 1
    24   15   21 1
    25   16   18 1
    26   16   20 1
    27   17   19 1
    28   17   22 1
    29   18   30 1
    30   19   30 1
    31   20   29 1
    32   21   33 1
    33   22   23 1
    34   22   31 1
    35   24   25 1
    36   24   26 1
    37   25   27 1
    38   26   28 1
    39   27   32 1
    40   28   34 1
    41   29   30 1
    42    1   39 1
    43    2   40 1
    44    3   41 1
    45    4   42 1
    46    5   43 1
    47   11   44 1
    48   11   45 1
    49   12   46 1
    50   12   47 1
    51   13   48 1
    52   13   49 1
    53   14   50 1
    54   14   51 1
    55   15   52 1
    56   15   53 1
    57   16   54 1
    58   16   55 1
    59   17   56 1
    60   17   57 1
    61   18   58 1
    62   18   59 1
    63   19   60 1
    64   19   61 1
    65   20   62 1
    66   21   63 1
    67   23   64 1
    68   23   65 1
    69   24   66 1
    70   24   67 1
    71   25   68 1
    72   25   69 1
    73   26   70 1
    74   26   71 1
    75   27   72 1
    76   27   73 1
    77   28   74 1
    78   31   75 1
    79   31   76 1
    80   32   77 1
    81   32   78 1
    82   33   79 1
    83   34   80 1
@<TRIPOS>MOLECULE
1a46_ligand_97
   80    83     0     0     0
SMALL
USER_CHARGES

mmff94s_NoEstat = 83.15
@<TRIPOS>ATOM
      1 C1         -5.9518    1.0529  -15.7574 C.ar      1 <0>        -0.1300
      2 C2         -4.7078    1.6646  -15.9115 C.ar      1 <0>        -0.1323
      3 C3         -6.6077    1.1063  -14.5275 C.ar      1 <0>        -0.1309
      4 C4         -4.1196    2.3297  -14.8357 C.ar      1 <0>        -0.1275
      5 C5         -6.0195    1.7714  -13.4517 C.ar      1 <0>        -0.1272
      6 C6         -4.7793    2.3787  -13.6128 C.ar      1 <0>        -0.0843
      7 C7         -2.6173    2.8751  -10.4447 C.2       1 <0>         0.6709
      8 C8          2.7796    3.2097   -6.1637 C.2       1 <0>         0.4867
      9 C9          2.0233    2.5606   -5.0416 C.2       1 <0>         0.5883
     10 C10        -0.0591    2.8141   -8.5012 C.2       1 <0>         0.6572
     11 C11        -2.2304    3.2606   -1.7811 C.3       1 <0>        -0.0802
     12 C12        -0.9342    3.8921   -1.2811 C.3       1 <0>        -0.0765
     13 C13        -1.9607    2.0515   -2.6723 C.3       1 <0>        -0.0774
     14 C14         0.0030    4.2439   -2.4351 C.3       1 <0>        -0.0953
     15 C15        -1.0251    2.4015   -3.8283 C.3       1 <0>        -0.0906
     16 C16        -1.5879    1.1654   -7.3921 C.3       1 <0>        -0.0871
     17 C17        -4.1019    0.9486  -11.1228 C.3       1 <0>        -0.0716
     18 C18        -1.5823    0.0424   -8.4274 C.3       1 <0>         0.1333
     19 C19        -3.5290    0.2485   -9.8784 C.3       1 <0>         0.1246
     20 C20        -1.4789    2.4202   -8.2321 C.3       1 <0>         0.0606
     21 C21         0.2802    3.0242   -3.3210 C.3       1 <0>         0.1012
     22 C22        -3.2673    2.1480  -11.6303 C.3       1 <0>         0.1554
     23 C23        -4.1466    3.0941  -12.4556 C.3       1 <0>        -0.0356
     24 C24         1.4445    5.5921   -8.9731 C.3       1 <0>        -0.0795
     25 C25         1.6370    7.0835   -9.2718 C.3       1 <0>        -0.1203
     26 C26         2.1570    5.1335   -7.6933 C.3       1 <0>        -0.0920
     27 C27         0.9502    7.5360  -10.5601 C.3       1 <0>         0.1502
     28 C28         2.0196    3.6328   -7.4097 C.3       1 <0>         0.0224
     29 N1         -2.0587    2.0261   -9.5019 N.am      1 <0>        -0.3553
     30 N2         -2.1349    0.6298   -9.6602 N.3       1 <0>        -0.4320
     31 N3         -2.1572    1.6877  -12.4773 N.3       1 <0>        -0.9031
     32 N4          1.1922    8.9569  -10.7874 N.3       1 <0>        -0.9068
     33 N5          1.1182    3.4132   -4.4536 N.am      1 <0>        -0.5526
     34 N6          0.6426    3.2153   -7.3763 N.am      1 <0>        -0.5576
     35 O1         -2.5899    4.1027  -10.3594 O.2       1 <0>        -0.6710
     36 O2          3.9949    3.2835   -6.0334 O.2       1 <0>        -0.4901
     37 O3          2.2923    1.4031   -4.7649 O.2       1 <0>        -0.5902
     38 O4          0.3766    2.7593   -9.6452 O.2       1 <0>        -0.5833
     39 H1         -6.4098    0.5350  -16.5951 H         1 <0>         0.1320
     40 H2         -4.1972    1.6230  -16.8692 H         1 <0>         0.1324
     41 H3         -7.5763    0.6298  -14.4076 H         1 <0>         0.1328
     42 H4         -3.1501    2.8034  -14.9651 H         1 <0>         0.1324
     43 H5         -6.5379    1.8077  -12.4972 H         1 <0>         0.1434
     44 H6         -2.8470    2.9587   -0.9269 H         1 <0>         0.0405
     45 H7         -2.8055    4.0065   -2.3434 H         1 <0>         0.0421
     46 H8         -1.1629    4.7951   -0.7038 H         1 <0>         0.0362
     47 H9         -0.4280    3.1969   -0.6001 H         1 <0>         0.0439
     48 H10        -1.5149    1.2478   -2.0735 H         1 <0>         0.0350
     49 H11        -2.9075    1.6673   -3.0683 H         1 <0>         0.0428
     50 H12        -0.4426    5.0491   -3.0339 H         1 <0>         0.0663
     51 H13         0.9453    4.6391   -2.0364 H         1 <0>         0.0466
     52 H14        -0.8073    1.4985   -4.4114 H         1 <0>         0.0493
     53 H15        -1.5324    3.0967   -4.5102 H         1 <0>         0.0520
     54 H16        -2.5475    1.1615   -6.8606 H         1 <0>         0.0915
     55 H17        -0.7842    1.0569   -6.6575 H         1 <0>         0.0601
     56 H18        -4.2204    0.2148  -11.9317 H         1 <0>         0.0688
     57 H19        -5.1178    1.2870  -10.8778 H         1 <0>         0.0630
     58 H20        -0.5477   -0.2605   -8.6286 H         1 <0>         0.0807
     59 H21        -2.1179   -0.8467   -8.0766 H         1 <0>         0.0380
     60 H22        -4.1468    0.5063   -9.0071 H         1 <0>         0.0484
     61 H23        -3.6100   -0.8367  -10.0142 H         1 <0>         0.0697
     62 H24        -2.0054    3.2790   -7.8063 H         1 <0>         0.0843
     63 H25         0.8524    2.2785   -2.7571 H         1 <0>         0.0831
     64 H26        -3.5359    3.9262  -12.8108 H         1 <0>         0.0704
     65 H27        -4.9137    3.5213  -11.8072 H         1 <0>         0.0718
     66 H28         0.3683    5.4079   -8.8774 H         1 <0>         0.0606
     67 H29         1.7918    5.0040   -9.8306 H         1 <0>         0.0458
     68 H30         1.2300    7.6523   -8.4256 H         1 <0>         0.0375
     69 H31         2.7093    7.3123   -9.3176 H         1 <0>         0.0392
     70 H32         1.7604    5.7005   -6.8419 H         1 <0>         0.0606
     71 H33         3.2243    5.3739   -7.7660 H         1 <0>         0.0579
     72 H34        -0.1287    7.3572  -10.4981 H         1 <0>         0.0571
     73 H35         1.3345    6.9786  -11.4193 H         1 <0>         0.0503
     74 H36         2.4714    3.0747   -8.2388 H         1 <0>         0.0993
     75 H37        -1.7180    0.8294  -12.2371 H         1 <0>         0.3700
     76 H38        -1.7642    2.3382  -13.1175 H         1 <0>         0.3660
     77 H39         0.7014    9.4044  -11.5317 H         1 <0>         0.3465
     78 H40         1.9755    9.3785  -10.3359 H         1 <0>         0.3446
     79 H41         1.0281    4.3550   -4.8229 H         1 <0>         0.3148
     80 H42         0.1596    3.2148   -6.4798 H         1 <0>         0.3220
@<TRIPOS>BOND
     1    1    2 ar
     2    1    3 ar
     3    2    4 ar
     4    3    5 ar
     5    4    6 ar
     6    5    6 ar
     7    6   23 1
     8    7   22 1
     9    7   29 am
    10    7   35 2
    11    8    9 1
    12    8   28 1
    13    8   36 2
    14    9   33 am
    15    9   37 2
    16   10   20 1
    17   10   34 am
    18   10   38 2
    19   11   12 1
    20   11   13 1
    21   12   14 1
    22   13   15 1
    23   14   21 1
    24   15   21 1
    25   16   18 1
    26   16   20 1
    27   17   19 1
    28   17   22 1
    29   18   30 1
    30   19   30 1
    31   20   29 1
    32   21   33 1
    33   22   23 1
    34   22   31 1
    35   24   25 1
    36   24   26 1
    37   25   27 1
    38   26   28 1
    39   27   32 1
    40   28   34 1
    41   29   30 1
    42    1   39 1
    43    2   40 1
    44    3   41 1
    45    4   42 1
    46    5   43 1
    47   11   44 1
    48   11   45 1
    49   12   46 1
    50   12   47 1
    51   13   48 1
    52   13   49 1
    53   14   50 1
    54   14   51 1
    55   15   52 1
    56   15   53 1
    57   16   54 1
    58   16   55 1
    59   17   56 1
    60   17   57 1
    61   18   58 1
    62   18   59 1
    63   19   60 1
    64   19   61 1
    65   20   62 1
    66   21   63 1
    67   23   64 1
    68   23   65 1
    69   24   66 1
    70   24   67 1
    71   25   68 1
    72   25   69 1
    73   26   70 1
    74   26   71 1
    75   27   72 1
    76   27   73 1
    77   28   74 1
    78   31   75 1
    79   31   76 1
    80   32   77 1
    81   32   78 1
    82   33   79 1
    83   34   80 1
@<TRIPOS>MOLECULE
1a46_ligand_98
   80    83     0     0     0
SMALL
USER_CHARGES

mmff94s_NoEstat = 83.16
@<TRIPOS>ATOM
      1 C1          9.3427    1.2226  -10.2936 C.ar      1 <0>        -0.1300
      2 C2          9.9666    0.8172   -9.1138 C.ar      1 <0>        -0.1323
      3 C3          8.4336    2.2805  -10.2739 C.ar      1 <0>        -0.1309
      4 C4          9.6814    1.4695   -7.9143 C.ar      1 <0>        -0.1275
      5 C5          8.1485    2.9328   -9.0744 C.ar      1 <0>        -0.1272
      6 C6          8.7742    2.5231   -7.9024 C.ar      1 <0>        -0.0843
      7 C7          6.9710    3.2795   -4.5657 C.2       1 <0>         0.6709
      8 C8          5.2358    2.3798    1.5634 C.2       1 <0>         0.4867
      9 C9          5.6522    1.1980    2.3894 C.2       1 <0>         0.5883
     10 C10         5.7098    2.8119   -1.6475 C.2       1 <0>         0.6572
     11 C11         6.0891    1.7885    7.2738 C.3       1 <0>        -0.0802
     12 C12         7.2314    2.3018    6.4011 C.3       1 <0>        -0.0765
     13 C13         4.9630    1.1831    6.4401 C.3       1 <0>        -0.0774
     14 C14         7.7465    1.2176    5.4534 C.3       1 <0>        -0.0953
     15 C15         5.4834    0.1013    5.4926 C.3       1 <0>        -0.0906
     16 C16         3.6624    3.2324   -3.0320 C.3       1 <0>        -0.0871
     17 C17         6.0388    2.5547   -6.7975 C.3       1 <0>        -0.0716
     18 C18         3.6514    1.9752   -3.8994 C.3       1 <0>         0.1333
     19 C19         4.6996    2.4463   -6.0480 C.3       1 <0>         0.1246
     20 C20         5.1372    3.5153   -2.8394 C.3       1 <0>         0.0606
     21 C21         6.6330    0.5923    4.6026 C.3       1 <0>         0.1012
     22 C22         7.2891    2.5653   -5.8869 C.3       1 <0>         0.1554
     23 C23         8.4675    3.2247   -6.6121 C.3       1 <0>        -0.0356
     24 C24         8.0800    4.9598    0.7851 C.3       1 <0>        -0.0795
     25 C25         8.7880    6.0338    1.6192 C.3       1 <0>        -0.1203
     26 C26         6.9719    4.2276    1.5544 C.3       1 <0>        -0.0920
     27 C27         9.9095    6.7454    0.8629 C.3       1 <0>         0.1502
     28 C28         6.2906    3.1130    0.7514 C.3       1 <0>         0.0224
     29 N1          5.7488    2.9259   -4.0152 N.am      1 <0>        -0.3553
     30 N2          4.9069    2.0073   -4.6693 N.3       1 <0>        -0.4320
     31 N3          7.6768    1.1953   -5.5201 N.3       1 <0>        -0.9031
     32 N4         10.5470    7.7366    1.7233 N.3       1 <0>        -0.9068
     33 N5          6.1375    1.5625    3.6237 N.am      1 <0>        -0.5526
     34 N6          5.7762    3.5917   -0.5046 N.am      1 <0>        -0.5576
     35 O1          7.7474    4.0812   -4.0464 O.2       1 <0>        -0.6710
     36 O2          4.0675    2.7325    1.6631 O.2       1 <0>        -0.4901
     37 O3          5.5427    0.0877    1.8954 O.2       1 <0>        -0.5902
     38 O4          6.0670    1.6440   -1.7490 O.2       1 <0>        -0.5833
     39 H1          9.5646    0.7147  -11.2275 H         1 <0>         0.1320
     40 H2         10.6743   -0.0064   -9.1292 H         1 <0>         0.1324
     41 H3          7.9478    2.5960  -11.1926 H         1 <0>         0.1328
     42 H4         10.1723    1.1467   -7.0000 H         1 <0>         0.1324
     43 H5          7.4388    3.7559   -9.0687 H         1 <0>         0.1434
     44 H6          6.4749    1.0303    7.9666 H         1 <0>         0.0405
     45 H7          5.6956    2.6078    7.8860 H         1 <0>         0.0421
     46 H8          6.8886    3.1680    5.8224 H         1 <0>         0.0362
     47 H9          8.0517    2.6514    7.0384 H         1 <0>         0.0439
     48 H10         4.2039    0.7545    7.1044 H         1 <0>         0.0350
     49 H11         4.4689    1.9745    5.8637 H         1 <0>         0.0428
     50 H12         8.5217    1.6444    4.8055 H         1 <0>         0.0663
     51 H13         8.2267    0.4287    6.0461 H         1 <0>         0.0466
     52 H14         5.8335   -0.7519    6.0876 H         1 <0>         0.0493
     53 H15         4.6553   -0.2625    4.8723 H         1 <0>         0.0520
     54 H16         3.1996    4.0578   -3.5869 H         1 <0>         0.0915
     55 H17         3.1150    3.0948   -2.0945 H         1 <0>         0.0601
     56 H18         6.1186    1.7328   -7.5220 H         1 <0>         0.0688
     57 H19         6.0134    3.4760   -7.3953 H         1 <0>         0.0630
     58 H20         3.6705    1.0888   -3.2538 H         1 <0>         0.0807
     59 H21         2.7495    1.9066   -4.5175 H         1 <0>         0.0380
     60 H22         4.1937    3.4213   -6.0771 H         1 <0>         0.0484
     61 H23         4.0529    1.7380   -6.5798 H         1 <0>         0.0697
     62 H24         5.3721    4.5807   -2.7630 H         1 <0>         0.0843
     63 H25         7.0351   -0.2433    4.0203 H         1 <0>         0.0831
     64 H26         9.3395    3.2124   -5.9558 H         1 <0>         0.0704
     65 H27         8.2279    4.2735   -6.7972 H         1 <0>         0.0718
     66 H28         7.6494    5.4516   -0.0948 H         1 <0>         0.0606
     67 H29         8.8216    4.2418    0.4157 H         1 <0>         0.0458
     68 H30         8.0356    6.7709    1.9287 H         1 <0>         0.0375
     69 H31         9.1825    5.5824    2.5383 H         1 <0>         0.0392
     70 H32         6.2171    4.9575    1.8728 H         1 <0>         0.0606
     71 H33         7.3929    3.7874    2.4660 H         1 <0>         0.0579
     72 H34         9.5108    7.2416   -0.0285 H         1 <0>         0.0571
     73 H35        10.6706    6.0303    0.5375 H         1 <0>         0.0503
     74 H36         7.0421    2.3587    0.4881 H         1 <0>         0.0993
     75 H37         6.9507    0.5323   -5.3773 H         1 <0>         0.3700
     76 H38         8.6161    1.0420   -5.2343 H         1 <0>         0.3660
     77 H39        11.2163    8.3531    1.3147 H         1 <0>         0.3465
     78 H40        10.4498    7.6340    2.7108 H         1 <0>         0.3446
     79 H41         6.1529    2.5484    3.8672 H         1 <0>         0.3148
     80 H42         5.4441    4.5531   -0.5557 H         1 <0>         0.3220
@<TRIPOS>BOND
     1    1    2 ar
     2    1    3 ar
     3    2    4 ar
     4    3    5 ar
     5    4    6 ar
     6    5    6 ar
     7    6   23 1
     8    7   22 1
     9    7   29 am
    10    7   35 2
    11    8    9 1
    12    8   28 1
    13    8   36 2
    14    9   33 am
    15    9   37 2
    16   10   20 1
    17   10   34 am
    18   10   38 2
    19   11   12 1
    20   11   13 1
    21   12   14 1
    22   13   15 1
    23   14   21 1
    24   15   21 1
    25   16   18 1
    26   16   20 1
    27   17   19 1
    28   17   22 1
    29   18   30 1
    30   19   30 1
    31   20   29 1
    32   21   33 1
    33   22   23 1
    34   22   31 1
    35   24   25 1
    36   24   26 1
    37   25   27 1
    38   26   28 1
    39   27   32 1
    40   28   34 1
    41   29   30 1
    42    1   39 1
    43    2   40 1
    44    3   41 1
    45    4   42 1
    46    5   43 1
    47   11   44 1
    48   11   45 1
    49   12   46 1
    50   12   47 1
    51   13   48 1
    52   13   49 1
    53   14   50 1
    54   14   51 1
    55   15   52 1
    56   15   53 1
    57   16   54 1
    58   16   55 1
    59   17   56 1
    60   17   57 1
    61   18   58 1
    62   18   59 1
    63   19   60 1
    64   19   61 1
    65   20   62 1
    66   21   63 1
    67   23   64 1
    68   23   65 1
    69   24   66 1
    70   24   67 1
    71   25   68 1
    72   25   69 1
    73   26   70 1
    74   26   71 1
    75   27   72 1
    76   27   73 1
    77   28   74 1
    78   31   75 1
    79   31   76 1
    80   32   77 1
    81   32   78 1
    82   33   79 1
    83   34   80 1
@<TRIPOS>MOLECULE
1a46_ligand_99
   80    83     0     0     0
SMALL
USER_CHARGES

mmff94s_NoEstat = 83.19
@<TRIPOS>ATOM
      1 C1          5.9504   -1.3642  -10.1903 C.ar      1 <0>        -0.1300
      2 C2          6.6765   -1.8241   -9.0918 C.ar      1 <0>        -0.1323
      3 C3          5.5463   -0.0305  -10.2504 C.ar      1 <0>        -0.1309
      4 C4          6.9984   -0.9504   -8.0532 C.ar      1 <0>        -0.1275
      5 C5          5.8681    0.8432   -9.2119 C.ar      1 <0>        -0.1272
      6 C6          6.5921    0.3776   -8.1201 C.ar      1 <0>        -0.0843
      7 C7          6.1974    2.2868   -4.7798 C.2       1 <0>         0.6709
      8 C8          5.2358    2.3798    1.5634 C.2       1 <0>         0.4867
      9 C9          5.6457    1.7076    2.8411 C.2       1 <0>         0.5883
     10 C10         5.7098    2.8119   -1.6475 C.2       1 <0>         0.6572
     11 C11         5.3193   -3.2170    3.0395 C.3       1 <0>        -0.0802
     12 C12         4.3631   -2.1344    3.5332 C.3       1 <0>        -0.0765
     13 C13         6.5499   -2.6230    2.3593 C.3       1 <0>        -0.0774
     14 C14         5.0748   -1.1219    4.4314 C.3       1 <0>        -0.0953
     15 C15         7.2567   -1.6095    3.2605 C.3       1 <0>        -0.0906
     16 C16         3.6723    3.8570   -2.6681 C.3       1 <0>        -0.0871
     17 C17         4.4858    1.7161   -6.5463 C.3       1 <0>        -0.0716
     18 C18         2.9535    2.6133   -3.1875 C.3       1 <0>         0.1333
     19 C19         3.4659    2.2898   -5.5476 C.3       1 <0>         0.1246
     20 C20         5.1372    3.5153   -2.8394 C.3       1 <0>         0.0606
     21 C21         6.3167   -0.5090    3.7703 C.3       1 <0>         0.1012
     22 C22         5.8481    1.3265   -5.9256 C.3       1 <0>         0.1554
     23 C23         6.9383    1.3175   -7.0029 C.3       1 <0>        -0.0356
     24 C24         6.0158    5.3379    2.0114 C.3       1 <0>        -0.0795
     25 C25         6.7209    6.4716    2.7653 C.3       1 <0>        -0.1203
     26 C26         6.9719    4.2276    1.5544 C.3       1 <0>        -0.0920
     27 C27         5.7742    7.5909    3.1979 C.3       1 <0>         0.1502
     28 C28         6.2906    3.1130    0.7514 C.3       1 <0>         0.0224
     29 N1          5.1345    2.5635   -3.9339 N.am      1 <0>        -0.3553
     30 N2          3.8653    2.0037   -4.1710 N.3       1 <0>        -0.4320
     31 N3          5.7803   -0.0123   -5.3216 N.3       1 <0>        -0.9031
     32 N4          6.5168    8.6391    3.8900 N.3       1 <0>        -0.9068
     33 N5          5.9220    0.3713    2.6684 N.am      1 <0>        -0.5526
     34 N6          5.7762    3.5917   -0.5046 N.am      1 <0>        -0.5576
     35 O1          7.3278    2.7504   -4.6301 O.2       1 <0>        -0.6710
     36 O2          4.0412    2.3628    1.2952 O.2       1 <0>        -0.4901
     37 O3          5.6695    2.3799    3.8590 O.2       1 <0>        -0.5902
     38 O4          6.0670    1.6440   -1.7490 O.2       1 <0>        -0.5833
     39 H1          5.6997   -2.0446  -10.9989 H         1 <0>         0.1320
     40 H2          6.9911   -2.8626   -9.0451 H         1 <0>         0.1324
     41 H3          4.9808    0.3274  -11.1059 H         1 <0>         0.1328
     42 H4          7.5644   -1.3176   -7.2012 H         1 <0>         0.1324
     43 H5          5.5489    1.8806   -9.2673 H         1 <0>         0.1434
     44 H6          5.6373   -3.8343    3.8888 H         1 <0>         0.0405
     45 H7          4.7964   -3.8809    2.3418 H         1 <0>         0.0421
     46 H8          3.9186   -1.6193    2.6731 H         1 <0>         0.0362
     47 H9          3.5377   -2.5979    4.0857 H         1 <0>         0.0439
     48 H10         7.2466   -3.4264    2.0941 H         1 <0>         0.0350
     49 H11         6.2514   -2.1401    1.4210 H         1 <0>         0.0428
     50 H12         4.3686   -0.3314    4.7131 H         1 <0>         0.0663
     51 H13         5.3771   -1.6234    5.3596 H         1 <0>         0.0466
     52 H14         7.6844   -2.1391    4.1214 H         1 <0>         0.0493
     53 H15         8.0959   -1.1645    2.7124 H         1 <0>         0.0520
     54 H16         3.4181    4.7133   -3.3051 H         1 <0>         0.0915
     55 H17         3.3944    4.0971   -1.6373 H         1 <0>         0.0601
     56 H18         4.0497    0.8441   -7.0524 H         1 <0>         0.0688
     57 H19         4.6431    2.4675   -7.3320 H         1 <0>         0.0630
     58 H20         2.8170    1.9026   -2.3635 H         1 <0>         0.0807
     59 H21         1.9588    2.8453   -3.5837 H         1 <0>         0.0380
     60 H22         3.3744    3.3723   -5.7123 H         1 <0>         0.0484
     61 H23         2.4818    1.8533   -5.7569 H         1 <0>         0.0697
     62 H24         5.7646    4.3810   -3.0694 H         1 <0>         0.0843
     63 H25         6.8444    0.1271    4.4887 H         1 <0>         0.0831
     64 H26         7.8868    1.0311   -6.5450 H         1 <0>         0.0704
     65 H27         7.0672    2.3317   -7.3854 H         1 <0>         0.0718
     66 H28         5.2579    4.9142    2.6804 H         1 <0>         0.0606
     67 H29         5.4809    5.7546    1.1500 H         1 <0>         0.0458
     68 H30         7.2000    6.0392    3.6534 H         1 <0>         0.0375
     69 H31         7.5258    6.8807    2.1417 H         1 <0>         0.0392
     70 H32         7.4599    3.7926    2.4354 H         1 <0>         0.0606
     71 H33         7.7645    4.6634    0.9347 H         1 <0>         0.0579
     72 H34         4.9986    7.1962    3.8630 H         1 <0>         0.0571
     73 H35         5.2784    8.0349    2.3297 H         1 <0>         0.0503
     74 H36         7.0421    2.3587    0.4881 H         1 <0>         0.0993
     75 H37         4.9287   -0.2795   -4.8849 H         1 <0>         0.3700
     76 H38         6.6336   -0.5056   -5.1950 H         1 <0>         0.3660
     77 H39         5.9996    9.3711    4.3277 H         1 <0>         0.3465
     78 H40         7.4997    8.7018    3.7315 H         1 <0>         0.3446
     79 H41         5.8492   -0.0226    1.7351 H         1 <0>         0.3148
     80 H42         5.4441    4.5531   -0.5557 H         1 <0>         0.3220
@<TRIPOS>BOND
     1    1    2 ar
     2    1    3 ar
     3    2    4 ar
     4    3    5 ar
     5    4    6 ar
     6    5    6 ar
     7    6   23 1
     8    7   22 1
     9    7   29 am
    10    7   35 2
    11    8    9 1
    12    8   28 1
    13    8   36 2
    14    9   33 am
    15    9   37 2
    16   10   20 1
    17   10   34 am
    18   10   38 2
    19   11   12 1
    20   11   13 1
    21   12   14 1
    22   13   15 1
    23   14   21 1
    24   15   21 1
    25   16   18 1
    26   16   20 1
    27   17   19 1
    28   17   22 1
    29   18   30 1
    30   19   30 1
    31   20   29 1
    32   21   33 1
    33   22   23 1
    34   22   31 1
    35   24   25 1
    36   24   26 1
    37   25   27 1
    38   26   28 1
    39   27   32 1
    40   28   34 1
    41   29   30 1
    42    1   39 1
    43    2   40 1
    44    3   41 1
    45    4   42 1
    46    5   43 1
    47   11   44 1
    48   11   45 1
    49   12   46 1
    50   12   47 1
    51   13   48 1
    52   13   49 1
    53   14   50 1
    54   14   51 1
    55   15   52 1
    56   15   53 1
    57   16   54 1
    58   16   55 1
    59   17   56 1
    60   17   57 1
    61   18   58 1
    62   18   59 1
    63   19   60 1
    64   19   61 1
    65   20   62 1
    66   21   63 1
    67   23   64 1
    68   23   65 1
    69   24   66 1
    70   24   67 1
    71   25   68 1
    72   25   69 1
    73   26   70 1
    74   26   71 1
    75   27   72 1
    76   27   73 1
    77   28   74 1
    78   31   75 1
    79   31   76 1
    80   32   77 1
    81   32   78 1
    82   33   79 1
    83   34   80 1
@<TRIPOS>MOLECULE
1a46_ligand_100
   80    83     0     0     0
SMALL
USER_CHARGES

mmff94s_NoEstat = 83.19
@<TRIPOS>ATOM
      1 C1         11.0121    9.2104   -7.9325 C.ar      1 <0>        -0.1300
      2 C2         11.5385    8.8832   -6.6829 C.ar      1 <0>        -0.1323
      3 C3          9.6345    9.1559   -8.1449 C.ar      1 <0>        -0.1309
      4 C4         10.6874    8.5015   -5.6458 C.ar      1 <0>        -0.1275
      5 C5          8.7834    8.7742   -7.1078 C.ar      1 <0>        -0.1272
      6 C6          9.3154    8.4495   -5.8650 C.ar      1 <0>        -0.0843
      7 C7          7.2411    6.0968   -3.6024 C.2       1 <0>         0.6709
      8 C8          5.2358    2.3798    1.5634 C.2       1 <0>         0.4867
      9 C9          5.6522    1.1980    2.3894 C.2       1 <0>         0.5883
     10 C10         6.5256    3.6321   -1.6689 C.2       1 <0>         0.6572
     11 C11         8.5733   -2.2013    0.3137 C.3       1 <0>        -0.0802
     12 C12         7.0878   -2.2472   -0.0344 C.3       1 <0>        -0.0765
     13 C13         8.9012   -1.0498    1.2605 C.3       1 <0>        -0.0774
     14 C14         6.2162   -2.2794    1.2217 C.3       1 <0>        -0.0953
     15 C15         8.0255   -1.0852    2.5138 C.3       1 <0>        -0.0906
     16 C16         5.2113    3.0694   -3.7284 C.3       1 <0>        -0.0871
     17 C17         7.6012    6.0599   -6.1012 C.3       1 <0>        -0.0716
     18 C18         6.3446    2.7580   -4.7039 C.3       1 <0>         0.1333
     19 C19         6.8355    4.7264   -6.0536 C.3       1 <0>         0.1246
     20 C20         5.7868    4.1659   -2.8575 C.3       1 <0>         0.0606
     21 C21         6.5260   -1.1310    2.1912 C.3       1 <0>         0.1012
     22 C22         8.1773    6.5224   -4.7422 C.3       1 <0>         0.1554
     23 C23         8.4000    8.0389   -4.7494 C.3       1 <0>        -0.0356
     24 C24         8.0800    4.9598    0.7851 C.3       1 <0>        -0.0795
     25 C25         8.7880    6.0338    1.6192 C.3       1 <0>        -0.1203
     26 C26         6.9719    4.2276    1.5544 C.3       1 <0>        -0.0920
     27 C27         9.9095    6.7454    0.8629 C.3       1 <0>         0.1502
     28 C28         6.2906    3.1130    0.7514 C.3       1 <0>         0.0224
     29 N1          6.7674    4.7991   -3.7183 N.am      1 <0>        -0.3553
     30 N2          7.1280    4.0001   -4.8193 N.3       1 <0>        -0.4320
     31 N3          9.4643    5.8648   -4.4722 N.3       1 <0>        -0.9031
     32 N4         10.5470    7.7366    1.7233 N.3       1 <0>        -0.9068
     33 N5          6.0911    0.1457    1.6201 N.am      1 <0>        -0.5526
     34 N6          5.7762    3.5917   -0.5046 N.am      1 <0>        -0.5576
     35 O1          6.9567    6.8465   -2.6685 O.2       1 <0>        -0.6710
     36 O2          4.0675    2.7325    1.6631 O.2       1 <0>        -0.4901
     37 O3          5.5431    1.2807    3.6019 O.2       1 <0>        -0.5902
     38 O4          7.6924    3.2783   -1.7917 O.2       1 <0>        -0.5833
     39 H1         11.6747    9.5075   -8.7400 H         1 <0>         0.1320
     40 H2         12.6111    8.9257   -6.5176 H         1 <0>         0.1324
     41 H3          9.2248    9.4105   -9.1180 H         1 <0>         0.1328
     42 H4         11.1066    8.2484   -4.6756 H         1 <0>         0.1324
     43 H5          7.7115    8.7346   -7.2826 H         1 <0>         0.1434
     44 H6          8.8652   -3.1496    0.7818 H         1 <0>         0.0405
     45 H7          9.1645   -2.1042   -0.6039 H         1 <0>         0.0421
     46 H8          6.8280   -1.3732   -0.6439 H         1 <0>         0.0362
     47 H9          6.8815   -3.1326   -0.6466 H         1 <0>         0.0439
     48 H10         9.9572   -1.1013    1.5494 H         1 <0>         0.0350
     49 H11         8.7621   -0.0959    0.7377 H         1 <0>         0.0428
     50 H12         5.1599   -2.2505    0.9279 H         1 <0>         0.0663
     51 H13         6.3761   -3.2341    1.7388 H         1 <0>         0.0466
     52 H14         8.2894   -1.9712    3.1052 H         1 <0>         0.0493
     53 H15         8.2509   -0.2099    3.1351 H         1 <0>         0.0520
     54 H16         4.3507    3.4578   -4.2870 H         1 <0>         0.0915
     55 H17         4.8908    2.1856   -3.1683 H         1 <0>         0.0601
     56 H18         8.4120    5.9885   -6.8390 H         1 <0>         0.0688
     57 H19         6.9149    6.8257   -6.4876 H         1 <0>         0.0630
     58 H20         6.9926    1.9855   -4.2725 H         1 <0>         0.0807
     59 H21         5.9735    2.3729   -5.6602 H         1 <0>         0.0380
     60 H22         5.7592    4.9288   -6.1435 H         1 <0>         0.0484
     61 H23         7.1185    4.1245   -6.9255 H         1 <0>         0.0697
     62 H24         5.0406    4.8864   -2.5107 H         1 <0>         0.0843
     63 H25         5.9510   -1.2586    3.1143 H         1 <0>         0.0831
     64 H26         8.8151    8.3408   -3.7861 H         1 <0>         0.0704
     65 H27         7.4343    8.5386   -4.8464 H         1 <0>         0.0718
     66 H28         7.6494    5.4516   -0.0948 H         1 <0>         0.0606
     67 H29         8.8216    4.2418    0.4157 H         1 <0>         0.0458
     68 H30         8.0356    6.7709    1.9287 H         1 <0>         0.0375
     69 H31         9.1825    5.5824    2.5383 H         1 <0>         0.0392
     70 H32         6.2171    4.9575    1.8728 H         1 <0>         0.0606
     71 H33         7.3929    3.7874    2.4660 H         1 <0>         0.0579
     72 H34         9.5108    7.2416   -0.0285 H         1 <0>         0.0571
     73 H35        10.6706    6.0303    0.5375 H         1 <0>         0.0503
     74 H36         7.0421    2.3587    0.4881 H         1 <0>         0.0993
     75 H37         9.5764    4.9261   -4.7778 H         1 <0>         0.3700
     76 H38        10.0811    6.3037   -3.8286 H         1 <0>         0.3660
     77 H39        11.2163    8.3531    1.3147 H         1 <0>         0.3465
     78 H40        10.4498    7.6340    2.7108 H         1 <0>         0.3446
     79 H41         6.1146    0.2589    0.6111 H         1 <0>         0.3148
     80 H42         4.8120    3.9176   -0.5391 H         1 <0>         0.3220
@<TRIPOS>BOND
     1    1    2 ar
     2    1    3 ar
     3    2    4 ar
     4    3    5 ar
     5    4    6 ar
     6    5    6 ar
     7    6   23 1
     8    7   22 1
     9    7   29 am
    10    7   35 2
    11    8    9 1
    12    8   28 1
    13    8   36 2
    14    9   33 am
    15    9   37 2
    16   10   20 1
    17   10   34 am
    18   10   38 2
    19   11   12 1
    20   11   13 1
    21   12   14 1
    22   13   15 1
    23   14   21 1
    24   15   21 1
    25   16   18 1
    26   16   20 1
    27   17   19 1
    28   17   22 1
    29   18   30 1
    30   19   30 1
    31   20   29 1
    32   21   33 1
    33   22   23 1
    34   22   31 1
    35   24   25 1
    36   24   26 1
    37   25   27 1
    38   26   28 1
    39   27   32 1
    40   28   34 1
    41   29   30 1
    42    1   39 1
    43    2   40 1
    44    3   41 1
    45    4   42 1
    46    5   43 1
    47   11   44 1
    48   11   45 1
    49   12   46 1
    50   12   47 1
    51   13   48 1
    52   13   49 1
    53   14   50 1
    54   14   51 1
    55   15   52 1
    56   15   53 1
    57   16   54 1
    58   16   55 1
    59   17   56 1
    60   17   57 1
    61   18   58 1
    62   18   59 1
    63   19   60 1
    64   19   61 1
    65   20   62 1
    66   21   63 1
    67   23   64 1
    68   23   65 1
    69   24   66 1
    70   24   67 1
    71   25   68 1
    72   25   69 1
    73   26   70 1
    74   26   71 1
    75   27   72 1
    76   27   73 1
    77   28   74 1
    78   31   75 1
    79   31   76 1
    80   32   77 1
    81   32   78 1
    82   33   79 1
    83   34   80 1
@<TRIPOS>MOLECULE
1a46_ligand_101
   80    83     0     0     0
SMALL
USER_CHARGES

mmff94s_NoEstat = 83.22
@<TRIPOS>ATOM
      1 C1          5.9504   -1.3642  -10.1903 C.ar      1 <0>        -0.1300
      2 C2          6.6765   -1.8241   -9.0918 C.ar      1 <0>        -0.1323
      3 C3          5.5463   -0.0305  -10.2504 C.ar      1 <0>        -0.1309
      4 C4          6.9984   -0.9504   -8.0532 C.ar      1 <0>        -0.1275
      5 C5          5.8681    0.8432   -9.2119 C.ar      1 <0>        -0.1272
      6 C6          6.5921    0.3776   -8.1201 C.ar      1 <0>        -0.0843
      7 C7          6.1974    2.2868   -4.7798 C.2       1 <0>         0.6709
      8 C8          5.2358    2.3798    1.5634 C.2       1 <0>         0.4867
      9 C9          3.8230    2.3549    1.0577 C.2       1 <0>         0.5883
     10 C10         5.7098    2.8119   -1.6475 C.2       1 <0>         0.6572
     11 C11         0.3896    4.6662    3.7535 C.3       1 <0>        -0.0802
     12 C12         0.7833    3.1927    3.6928 C.3       1 <0>        -0.0765
     13 C13         1.2470    5.5235    2.8264 C.3       1 <0>        -0.0774
     14 C14         0.7693    2.6651    2.2575 C.3       1 <0>        -0.0953
     15 C15         1.2316    4.9906    1.3930 C.3       1 <0>        -0.0906
     16 C16         3.6723    3.8570   -2.6681 C.3       1 <0>        -0.0871
     17 C17         4.4858    1.7161   -6.5463 C.3       1 <0>        -0.0716
     18 C18         2.9535    2.6133   -3.1875 C.3       1 <0>         0.1333
     19 C19         3.4659    2.2898   -5.5476 C.3       1 <0>         0.1246
     20 C20         5.1372    3.5153   -2.8394 C.3       1 <0>         0.0606
     21 C21         1.6248    3.5100    1.3041 C.3       1 <0>         0.1012
     22 C22         5.8481    1.3265   -5.9256 C.3       1 <0>         0.1554
     23 C23         6.9383    1.3175   -7.0029 C.3       1 <0>        -0.0356
     24 C24         7.6485    3.7409    2.8432 C.3       1 <0>        -0.0795
     25 C25         8.2774    4.8743    3.6620 C.3       1 <0>        -0.1203
     26 C26         6.9719    4.2276    1.5544 C.3       1 <0>        -0.0920
     27 C27         8.9284    4.3945    4.9589 C.3       1 <0>         0.1502
     28 C28         6.2906    3.1130    0.7514 C.3       1 <0>         0.0224
     29 N1          5.1345    2.5635   -3.9339 N.am      1 <0>        -0.3553
     30 N2          3.8653    2.0037   -4.1710 N.3       1 <0>        -0.4320
     31 N3          5.7803   -0.0123   -5.3216 N.3       1 <0>        -0.9031
     32 N4          9.4866    5.5266    5.6910 N.3       1 <0>        -0.9068
     33 N5          3.0460    3.3433    1.6158 N.am      1 <0>        -0.5526
     34 N6          5.7762    3.5917   -0.5046 N.am      1 <0>        -0.5576
     35 O1          7.3278    2.7504   -4.6301 O.2       1 <0>        -0.6710
     36 O2          5.4669    1.7271    2.5732 O.2       1 <0>        -0.4901
     37 O3          3.5174    1.4867    0.2568 O.2       1 <0>        -0.5902
     38 O4          6.0670    1.6440   -1.7490 O.2       1 <0>        -0.5833
     39 H1          5.6997   -2.0446  -10.9989 H         1 <0>         0.1320
     40 H2          6.9911   -2.8626   -9.0451 H         1 <0>         0.1324
     41 H3          4.9808    0.3274  -11.1059 H         1 <0>         0.1328
     42 H4          7.5644   -1.3176   -7.2012 H         1 <0>         0.1324
     43 H5          5.5489    1.8806   -9.2673 H         1 <0>         0.1434
     44 H6         -0.6654    4.7712    3.4715 H         1 <0>         0.0405
     45 H7          0.4815    5.0305    4.7829 H         1 <0>         0.0421
     46 H8          1.7825    3.0631    4.1260 H         1 <0>         0.0362
     47 H9          0.0932    2.6028    4.3070 H         1 <0>         0.0439
     48 H10         0.8803    6.5563    2.8376 H         1 <0>         0.0350
     49 H11         2.2773    5.5493    3.2014 H         1 <0>         0.0428
     50 H12         1.1154    1.6244    2.2530 H         1 <0>         0.0663
     51 H13        -0.2661    2.6571    1.8937 H         1 <0>         0.0466
     52 H14         0.2228    5.1163    0.9794 H         1 <0>         0.0493
     53 H15         1.9056    5.5973    0.7762 H         1 <0>         0.0520
     54 H16         3.4181    4.7133   -3.3051 H         1 <0>         0.0915
     55 H17         3.3944    4.0971   -1.6373 H         1 <0>         0.0601
     56 H18         4.0497    0.8441   -7.0524 H         1 <0>         0.0688
     57 H19         4.6431    2.4675   -7.3320 H         1 <0>         0.0630
     58 H20         2.8170    1.9026   -2.3635 H         1 <0>         0.0807
     59 H21         1.9588    2.8453   -3.5837 H         1 <0>         0.0380
     60 H22         3.3744    3.3723   -5.7123 H         1 <0>         0.0484
     61 H23         2.4818    1.8533   -5.7569 H         1 <0>         0.0697
     62 H24         5.7646    4.3810   -3.0694 H         1 <0>         0.0843
     63 H25         1.4987    3.1531    0.2766 H         1 <0>         0.0831
     64 H26         7.8868    1.0311   -6.5450 H         1 <0>         0.0704
     65 H27         7.0672    2.3317   -7.3854 H         1 <0>         0.0718
     66 H28         8.4445    3.0306    2.5915 H         1 <0>         0.0606
     67 H29         6.9275    3.2007    3.4679 H         1 <0>         0.0458
     68 H30         9.0354    5.3625    3.0356 H         1 <0>         0.0375
     69 H31         7.5157    5.6329    3.8824 H         1 <0>         0.0392
     70 H32         7.7210    4.7221    0.9235 H         1 <0>         0.0606
     71 H33         6.2174    4.9831    1.8035 H         1 <0>         0.0579
     72 H34         9.7251    3.6753    4.7403 H         1 <0>         0.0571
     73 H35         8.1937    3.8977    5.5994 H         1 <0>         0.0503
     74 H36         7.0421    2.3587    0.4881 H         1 <0>         0.0993
     75 H37         4.9287   -0.2795   -4.8849 H         1 <0>         0.3700
     76 H38         6.6336   -0.5056   -5.1950 H         1 <0>         0.3660
     77 H39        10.0430    5.3371    6.4969 H         1 <0>         0.3465
     78 H40         9.1331    6.4373    5.4892 H         1 <0>         0.3446
     79 H41         3.4772    3.9862    2.2733 H         1 <0>         0.3148
     80 H42         5.4441    4.5531   -0.5557 H         1 <0>         0.3220
@<TRIPOS>BOND
     1    1    2 ar
     2    1    3 ar
     3    2    4 ar
     4    3    5 ar
     5    4    6 ar
     6    5    6 ar
     7    6   23 1
     8    7   22 1
     9    7   29 am
    10    7   35 2
    11    8    9 1
    12    8   28 1
    13    8   36 2
    14    9   33 am
    15    9   37 2
    16   10   20 1
    17   10   34 am
    18   10   38 2
    19   11   12 1
    20   11   13 1
    21   12   14 1
    22   13   15 1
    23   14   21 1
    24   15   21 1
    25   16   18 1
    26   16   20 1
    27   17   19 1
    28   17   22 1
    29   18   30 1
    30   19   30 1
    31   20   29 1
    32   21   33 1
    33   22   23 1
    34   22   31 1
    35   24   25 1
    36   24   26 1
    37   25   27 1
    38   26   28 1
    39   27   32 1
    40   28   34 1
    41   29   30 1
    42    1   39 1
    43    2   40 1
    44    3   41 1
    45    4   42 1
    46    5   43 1
    47   11   44 1
    48   11   45 1
    49   12   46 1
    50   12   47 1
    51   13   48 1
    52   13   49 1
    53   14   50 1
    54   14   51 1
    55   15   52 1
    56   15   53 1
    57   16   54 1
    58   16   55 1
    59   17   56 1
    60   17   57 1
    61   18   58 1
    62   18   59 1
    63   19   60 1
    64   19   61 1
    65   20   62 1
    66   21   63 1
    67   23   64 1
    68   23   65 1
    69   24   66 1
    70   24   67 1
    71   25   68 1
    72   25   69 1
    73   26   70 1
    74   26   71 1
    75   27   72 1
    76   27   73 1
    77   28   74 1
    78   31   75 1
    79   31   76 1
    80   32   77 1
    81   32   78 1
    82   33   79 1
    83   34   80 1
@<TRIPOS>MOLECULE
1a46_ligand_102
   80    83     0     0     0
SMALL
USER_CHARGES

mmff94s_NoEstat = 83.26
@<TRIPOS>ATOM
      1 C1          9.0003   12.0144   -5.4225 C.ar      1 <0>        -0.1300
      2 C2          9.4537   11.5665   -4.1818 C.ar      1 <0>        -0.1323
      3 C3          7.8120   11.5127   -5.9535 C.ar      1 <0>        -0.1309
      4 C4          8.7189   10.6167   -3.4722 C.ar      1 <0>        -0.1275
      5 C5          7.0772   10.5629   -5.2439 C.ar      1 <0>        -0.1272
      6 C6          7.5355   10.1211   -4.0078 C.ar      1 <0>        -0.0843
      7 C7          6.3757    6.6257   -2.8269 C.2       1 <0>         0.6709
      8 C8          5.2358    2.3798    1.5634 C.2       1 <0>         0.4867
      9 C9          3.8230    2.3549    1.0577 C.2       1 <0>         0.5883
     10 C10         6.5256    3.6321   -1.6689 C.2       1 <0>         0.6572
     11 C11         1.8228    6.5862   -0.5211 C.3       1 <0>        -0.0802
     12 C12         2.4339    5.4224   -1.2970 C.3       1 <0>        -0.0765
     13 C13         1.8899    6.3629    0.9874 C.3       1 <0>        -0.0774
     14 C14         1.8085    4.0866   -0.8927 C.3       1 <0>        -0.0953
     15 C15         1.2661    5.0248    1.3864 C.3       1 <0>        -0.0906
     16 C16         5.8400    3.2307   -4.0468 C.3       1 <0>        -0.0871
     17 C17         7.0291    7.4385   -5.1265 C.3       1 <0>        -0.0716
     18 C18         7.1120    3.6562   -4.7776 C.3       1 <0>         0.1333
     19 C19         6.8955    5.9616   -5.5361 C.3       1 <0>         0.1246
     20 C20         5.7868    4.1659   -2.8575 C.3       1 <0>         0.0606
     21 C21         1.8637    3.8371    0.6204 C.3       1 <0>         0.1012
     22 C22         7.1815    7.6752   -3.6055 C.3       1 <0>         0.1554
     23 C23         6.7451    9.0995   -3.2444 C.3       1 <0>        -0.0356
     24 C24         6.0158    5.3379    2.0114 C.3       1 <0>        -0.0795
     25 C25         6.7209    6.4716    2.7653 C.3       1 <0>        -0.1203
     26 C26         6.9719    4.2276    1.5544 C.3       1 <0>        -0.0920
     27 C27         7.4119    6.0077    4.0472 C.3       1 <0>         0.1502
     28 C28         6.2906    3.1130    0.7514 C.3       1 <0>         0.0224
     29 N1          6.5101    5.3360   -3.3173 N.am      1 <0>        -0.3553
     30 N2          7.3084    5.0783   -4.4472 N.3       1 <0>        -0.4320
     31 N3          8.5804    7.4980   -3.1893 N.3       1 <0>        -0.9031
     32 N4          8.0424    7.1400    4.7175 N.3       1 <0>        -0.9068
     33 N5          3.2455    3.6032    1.0456 N.am      1 <0>        -0.5526
     34 N6          5.7762    3.5917   -0.5046 N.am      1 <0>        -0.5576
     35 O1          5.6876    6.9159   -1.8485 O.2       1 <0>        -0.6710
     36 O2          5.4669    1.7271    2.5732 O.2       1 <0>        -0.4901
     37 O3          3.3466    1.2762    0.7444 O.2       1 <0>        -0.5902
     38 O4          7.6924    3.2783   -1.7917 O.2       1 <0>        -0.5833
     39 H1          9.5724   12.7539   -5.9752 H         1 <0>         0.1320
     40 H2         10.3789   11.9573   -3.7685 H         1 <0>         0.1324
     41 H3          7.4591   11.8615   -6.9197 H         1 <0>         0.1328
     42 H4          9.0800   10.2736   -2.5062 H         1 <0>         0.1324
     43 H5          6.1526   10.1776   -5.6655 H         1 <0>         0.1434
     44 H6          2.3424    7.5157   -0.7800 H         1 <0>         0.0405
     45 H7          0.7755    6.7123   -0.8225 H         1 <0>         0.0421
     46 H8          2.2930    5.5831   -2.3719 H         1 <0>         0.0362
     47 H9          3.5159    5.3936   -1.1201 H         1 <0>         0.0439
     48 H10         2.9356    6.3974    1.3160 H         1 <0>         0.0350
     49 H11         1.3691    7.1782    1.5026 H         1 <0>         0.0428
     50 H12         0.7602    4.0740   -1.2174 H         1 <0>         0.0663
     51 H13         2.3165    3.2749   -1.4274 H         1 <0>         0.0466
     52 H14         1.3895    4.8778    2.4663 H         1 <0>         0.0493
     53 H15         0.1866    5.0661    1.1927 H         1 <0>         0.0520
     54 H16         4.9736    3.4114   -4.6951 H         1 <0>         0.0915
     55 H17         5.8531    2.1713   -3.7729 H         1 <0>         0.0601
     56 H18         7.8805    7.8879   -5.6555 H         1 <0>         0.0688
     57 H19         6.1391    7.9685   -5.4921 H         1 <0>         0.0630
     58 H20         7.9647    3.0932   -4.3794 H         1 <0>         0.0807
     59 H21         7.0607    3.4497   -5.8523 H         1 <0>         0.0380
     60 H22         5.8545    5.7643   -5.8276 H         1 <0>         0.0484
     61 H23         7.5124    5.7838   -6.4252 H         1 <0>         0.0697
     62 H24         4.7698    4.4250   -2.5496 H         1 <0>         0.0843
     63 H25         1.3149    2.9221    0.8665 H         1 <0>         0.0831
     64 H26         6.8700    9.2469   -2.1701 H         1 <0>         0.0704
     65 H27         5.6795    9.2080   -3.4549 H         1 <0>         0.0718
     66 H28         5.2579    4.9142    2.6804 H         1 <0>         0.0606
     67 H29         5.4809    5.7546    1.1500 H         1 <0>         0.0458
     68 H30         7.4668    6.9122    2.0910 H         1 <0>         0.0375
     69 H31         5.9973    7.2642    2.9945 H         1 <0>         0.0392
     70 H32         7.4599    3.7926    2.4354 H         1 <0>         0.0606
     71 H33         7.7645    4.6634    0.9347 H         1 <0>         0.0579
     72 H34         8.1719    5.2532    3.8170 H         1 <0>         0.0571
     73 H35         6.6895    5.5581    4.7347 H         1 <0>         0.0503
     74 H36         7.0421    2.3587    0.4881 H         1 <0>         0.0993
     75 H37         9.1142    6.7979   -3.6499 H         1 <0>         0.3700
     76 H38         8.8693    7.9327   -2.3437 H         1 <0>         0.3660
     77 H39         8.6273    6.9547    5.5039 H         1 <0>         0.3465
     78 H40         7.7128    8.0567    4.5024 H         1 <0>         0.3446
     79 H41         3.8022    4.3983    1.3448 H         1 <0>         0.3148
     80 H42         4.8120    3.9176   -0.5391 H         1 <0>         0.3220
@<TRIPOS>BOND
     1    1    2 ar
     2    1    3 ar
     3    2    4 ar
     4    3    5 ar
     5    4    6 ar
     6    5    6 ar
     7    6   23 1
     8    7   22 1
     9    7   29 am
    10    7   35 2
    11    8    9 1
    12    8   28 1
    13    8   36 2
    14    9   33 am
    15    9   37 2
    16   10   20 1
    17   10   34 am
    18   10   38 2
    19   11   12 1
    20   11   13 1
    21   12   14 1
    22   13   15 1
    23   14   21 1
    24   15   21 1
    25   16   18 1
    26   16   20 1
    27   17   19 1
    28   17   22 1
    29   18   30 1
    30   19   30 1
    31   20   29 1
    32   21   33 1
    33   22   23 1
    34   22   31 1
    35   24   25 1
    36   24   26 1
    37   25   27 1
    38   26   28 1
    39   27   32 1
    40   28   34 1
    41   29   30 1
    42    1   39 1
    43    2   40 1
    44    3   41 1
    45    4   42 1
    46    5   43 1
    47   11   44 1
    48   11   45 1
    49   12   46 1
    50   12   47 1
    51   13   48 1
    52   13   49 1
    53   14   50 1
    54   14   51 1
    55   15   52 1
    56   15   53 1
    57   16   54 1
    58   16   55 1
    59   17   56 1
    60   17   57 1
    61   18   58 1
    62   18   59 1
    63   19   60 1
    64   19   61 1
    65   20   62 1
    66   21   63 1
    67   23   64 1
    68   23   65 1
    69   24   66 1
    70   24   67 1
    71   25   68 1
    72   25   69 1
    73   26   70 1
    74   26   71 1
    75   27   72 1
    76   27   73 1
    77   28   74 1
    78   31   75 1
    79   31   76 1
    80   32   77 1
    81   32   78 1
    82   33   79 1
    83   34   80 1
@<TRIPOS>MOLECULE
1a46_ligand_103
   80    83     0     0     0
SMALL
USER_CHARGES

mmff94s_NoEstat = 83.26
@<TRIPOS>ATOM
      1 C1         11.2165    5.1344   -9.5699 C.ar      1 <0>        -0.1300
      2 C2         11.8039    4.7828   -8.3546 C.ar      1 <0>        -0.1323
      3 C3          9.9328    5.6797   -9.5922 C.ar      1 <0>        -0.1309
      4 C4         11.1077    4.9765   -7.1616 C.ar      1 <0>        -0.1275
      5 C5          9.2366    5.8734   -8.3991 C.ar      1 <0>        -0.1272
      6 C6          9.8285    5.5206   -7.1916 C.ar      1 <0>        -0.0843
      7 C7          7.4784    4.7027   -4.2310 C.2       1 <0>         0.6709
      8 C8          5.2358    2.3798    1.5634 C.2       1 <0>         0.4867
      9 C9          5.6522    1.1980    2.3894 C.2       1 <0>         0.5883
     10 C10         6.2126    3.1256   -1.7338 C.2       1 <0>         0.6572
     11 C11         6.6816    1.9893    7.1551 C.3       1 <0>        -0.0802
     12 C12         7.6016    1.8792    5.9420 C.3       1 <0>        -0.0765
     13 C13         5.2114    1.8483    6.7697 C.3       1 <0>        -0.0774
     14 C14         7.3421    0.5947    5.1537 C.3       1 <0>        -0.0953
     15 C15         4.9576    0.5637    5.9796 C.3       1 <0>        -0.0906
     16 C16         4.3868    2.9365   -3.4414 C.3       1 <0>        -0.0871
     17 C17         7.2608    4.1580   -6.6868 C.3       1 <0>        -0.0716
     18 C18         5.0537    2.0131   -4.4592 C.3       1 <0>         0.1333
     19 C19         6.0339    3.3363   -6.2552 C.3       1 <0>         0.1246
     20 C20         5.5372    3.7637   -2.9085 C.3       1 <0>         0.0606
     21 C21         5.8700    0.4288    4.7533 C.3       1 <0>         0.1012
     22 C22         8.2469    4.4948   -5.5436 C.3       1 <0>         0.1554
     23 C23         9.0796    5.7289   -5.9083 C.3       1 <0>        -0.0356
     24 C24         8.0800    4.9598    0.7851 C.3       1 <0>        -0.0795
     25 C25         8.7880    6.0338    1.6192 C.3       1 <0>        -0.1203
     26 C26         6.9719    4.2276    1.5544 C.3       1 <0>        -0.0920
     27 C27         9.9095    6.7454    0.8629 C.3       1 <0>         0.1502
     28 C28         6.2906    3.1130    0.7514 C.3       1 <0>         0.0224
     29 N1          6.4904    3.7576   -4.0019 N.am      1 <0>        -0.3553
     30 N2          6.2438    2.7368   -4.9387 N.3       1 <0>        -0.4320
     31 N3          9.1632    3.3713   -5.2994 N.3       1 <0>        -0.9031
     32 N4         10.5470    7.7366    1.7233 N.3       1 <0>        -0.9068
     33 N5          5.5058    1.4204    3.7389 N.am      1 <0>        -0.5526
     34 N6          5.7762    3.5917   -0.5046 N.am      1 <0>        -0.5576
     35 O1          7.7368    5.6223   -3.4546 O.2       1 <0>        -0.6710
     36 O2          4.0675    2.7325    1.6631 O.2       1 <0>        -0.4901
     37 O3          6.0787    0.2146    1.8066 O.2       1 <0>        -0.5902
     38 O4          7.0689    2.2691   -1.9210 O.2       1 <0>        -0.5833
     39 H1         11.7586    4.9835  -10.4989 H         1 <0>         0.1320
     40 H2         12.8034    4.3582   -8.3374 H         1 <0>         0.1324
     41 H3          9.4755    5.9533  -10.5385 H         1 <0>         0.1328
     42 H4         11.5733    4.6996   -6.2195 H         1 <0>         0.1324
     43 H5          8.2369    6.2989   -8.4262 H         1 <0>         0.1434
     44 H6          6.9427    1.2082    7.8799 H         1 <0>         0.0405
     45 H7          6.8417    2.9520    7.6534 H         1 <0>         0.0421
     46 H8          7.4546    2.7498    5.2915 H         1 <0>         0.0362
     47 H9          8.6469    1.9026    6.2708 H         1 <0>         0.0439
     48 H10         4.5928    1.8508    7.6743 H         1 <0>         0.0350
     49 H11         4.9049    2.7167    6.1741 H         1 <0>         0.0428
     50 H12         7.9792    0.5852    4.2610 H         1 <0>         0.0663
     51 H13         7.6426   -0.2639    5.7676 H         1 <0>         0.0466
     52 H14         5.1209   -0.2968    6.6410 H         1 <0>         0.0493
     53 H15         3.9054    0.5325    5.6719 H         1 <0>         0.0520
     54 H16         3.6738    3.5897   -3.9595 H         1 <0>         0.0915
     55 H17         3.8488    2.3812   -2.6670 H         1 <0>         0.0601
     56 H18         7.7933    3.6252   -7.4865 H         1 <0>         0.0688
     57 H19         6.8963    5.0889   -7.1420 H         1 <0>         0.0630
     58 H20         5.3910    1.1000   -3.9542 H         1 <0>         0.0807
     59 H21         4.3651    1.7081   -5.2548 H         1 <0>         0.0380
     60 H22         5.1498    3.9888   -6.2523 H         1 <0>         0.0484
     61 H23         5.8493    2.5563   -7.0035 H         1 <0>         0.0697
     62 H24         5.2534    4.7844   -2.6367 H         1 <0>         0.0843
     63 H25         5.7204   -0.5494    4.2845 H         1 <0>         0.0831
     64 H26         9.7736    5.9418   -5.0932 H         1 <0>         0.0704
     65 H27         8.4167    6.5923   -5.9906 H         1 <0>         0.0718
     66 H28         7.6494    5.4516   -0.0948 H         1 <0>         0.0606
     67 H29         8.8216    4.2418    0.4157 H         1 <0>         0.0458
     68 H30         8.0356    6.7709    1.9287 H         1 <0>         0.0375
     69 H31         9.1825    5.5824    2.5383 H         1 <0>         0.0392
     70 H32         6.2171    4.9575    1.8728 H         1 <0>         0.0606
     71 H33         7.3929    3.7874    2.4660 H         1 <0>         0.0579
     72 H34         9.5108    7.2416   -0.0285 H         1 <0>         0.0571
     73 H35        10.6706    6.0303    0.5375 H         1 <0>         0.0503
     74 H36         7.0421    2.3587    0.4881 H         1 <0>         0.0993
     75 H37         8.8040    2.4509   -5.4050 H         1 <0>         0.3700
     76 H38        10.0264    3.5689   -4.8487 H         1 <0>         0.3660
     77 H39        11.2163    8.3531    1.3147 H         1 <0>         0.3465
     78 H40        10.4498    7.6340    2.7108 H         1 <0>         0.3446
     79 H41         5.1282    2.3120    4.0455 H         1 <0>         0.3148
     80 H42         5.0545    4.3100   -0.4888 H         1 <0>         0.3220
@<TRIPOS>BOND
     1    1    2 ar
     2    1    3 ar
     3    2    4 ar
     4    3    5 ar
     5    4    6 ar
     6    5    6 ar
     7    6   23 1
     8    7   22 1
     9    7   29 am
    10    7   35 2
    11    8    9 1
    12    8   28 1
    13    8   36 2
    14    9   33 am
    15    9   37 2
    16   10   20 1
    17   10   34 am
    18   10   38 2
    19   11   12 1
    20   11   13 1
    21   12   14 1
    22   13   15 1
    23   14   21 1
    24   15   21 1
    25   16   18 1
    26   16   20 1
    27   17   19 1
    28   17   22 1
    29   18   30 1
    30   19   30 1
    31   20   29 1
    32   21   33 1
    33   22   23 1
    34   22   31 1
    35   24   25 1
    36   24   26 1
    37   25   27 1
    38   26   28 1
    39   27   32 1
    40   28   34 1
    41   29   30 1
    42    1   39 1
    43    2   40 1
    44    3   41 1
    45    4   42 1
    46    5   43 1
    47   11   44 1
    48   11   45 1
    49   12   46 1
    50   12   47 1
    51   13   48 1
    52   13   49 1
    53   14   50 1
    54   14   51 1
    55   15   52 1
    56   15   53 1
    57   16   54 1
    58   16   55 1
    59   17   56 1
    60   17   57 1
    61   18   58 1
    62   18   59 1
    63   19   60 1
    64   19   61 1
    65   20   62 1
    66   21   63 1
    67   23   64 1
    68   23   65 1
    69   24   66 1
    70   24   67 1
    71   25   68 1
    72   25   69 1
    73   26   70 1
    74   26   71 1
    75   27   72 1
    76   27   73 1
    77   28   74 1
    78   31   75 1
    79   31   76 1
    80   32   77 1
    81   32   78 1
    82   33   79 1
    83   34   80 1
@<TRIPOS>MOLECULE
1a46_ligand_104
   80    83     0     0     0
SMALL
USER_CHARGES

mmff94s_NoEstat = 83.27
@<TRIPOS>ATOM
      1 C1          5.9504   -1.3642  -10.1903 C.ar      1 <0>        -0.1300
      2 C2          6.6765   -1.8241   -9.0918 C.ar      1 <0>        -0.1323
      3 C3          5.5463   -0.0305  -10.2504 C.ar      1 <0>        -0.1309
      4 C4          6.9984   -0.9504   -8.0532 C.ar      1 <0>        -0.1275
      5 C5          5.8681    0.8432   -9.2119 C.ar      1 <0>        -0.1272
      6 C6          6.5921    0.3776   -8.1201 C.ar      1 <0>        -0.0843
      7 C7          6.1974    2.2868   -4.7798 C.2       1 <0>         0.6709
      8 C8          5.2358    2.3798    1.5634 C.2       1 <0>         0.4867
      9 C9          5.6522    1.1980    2.3894 C.2       1 <0>         0.5883
     10 C10         5.7098    2.8119   -1.6475 C.2       1 <0>         0.6572
     11 C11         4.0322    0.9047    7.0463 C.3       1 <0>        -0.0802
     12 C12         5.2027    1.8445    6.7696 C.3       1 <0>        -0.0765
     13 C13         3.5408    0.2172    5.7752 C.3       1 <0>        -0.0774
     14 C14         6.3378    1.1287    6.0363 C.3       1 <0>        -0.0953
     15 C15         4.6799   -0.4951    5.0445 C.3       1 <0>        -0.0906
     16 C16         3.6723    3.8570   -2.6681 C.3       1 <0>        -0.0871
     17 C17         4.4858    1.7161   -6.5463 C.3       1 <0>        -0.0716
     18 C18         2.9535    2.6133   -3.1875 C.3       1 <0>         0.1333
     19 C19         3.4659    2.2898   -5.5476 C.3       1 <0>         0.1246
     20 C20         5.1372    3.5153   -2.8394 C.3       1 <0>         0.0606
     21 C21         5.8700    0.4288    4.7533 C.3       1 <0>         0.1012
     22 C22         5.8481    1.3265   -5.9256 C.3       1 <0>         0.1554
     23 C23         6.9383    1.3175   -7.0029 C.3       1 <0>        -0.0356
     24 C24         8.0800    4.9598    0.7851 C.3       1 <0>        -0.0795
     25 C25         8.7880    6.0338    1.6192 C.3       1 <0>        -0.1203
     26 C26         6.9719    4.2276    1.5544 C.3       1 <0>        -0.0920
     27 C27         9.9095    6.7454    0.8629 C.3       1 <0>         0.1502
     28 C28         6.2906    3.1130    0.7514 C.3       1 <0>         0.0224
     29 N1          5.1345    2.5635   -3.9339 N.am      1 <0>        -0.3553
     30 N2          3.8653    2.0037   -4.1710 N.3       1 <0>        -0.4320
     31 N3          5.7803   -0.0123   -5.3216 N.3       1 <0>        -0.9031
     32 N4         10.5470    7.7366    1.7233 N.3       1 <0>        -0.9068
     33 N5          5.5058    1.4204    3.7389 N.am      1 <0>        -0.5526
     34 N6          5.7762    3.5917   -0.5046 N.am      1 <0>        -0.5576
     35 O1          7.3278    2.7504   -4.6301 O.2       1 <0>        -0.6710
     36 O2          4.0675    2.7325    1.6631 O.2       1 <0>        -0.4901
     37 O3          6.0787    0.2146    1.8066 O.2       1 <0>        -0.5902
     38 O4          6.0670    1.6440   -1.7490 O.2       1 <0>        -0.5833
     39 H1          5.6997   -2.0446  -10.9989 H         1 <0>         0.1320
     40 H2          6.9911   -2.8626   -9.0451 H         1 <0>         0.1324
     41 H3          4.9808    0.3274  -11.1059 H         1 <0>         0.1328
     42 H4          7.5644   -1.3176   -7.2012 H         1 <0>         0.1324
     43 H5          5.5489    1.8806   -9.2673 H         1 <0>         0.1434
     44 H6          4.3425    0.1437    7.7730 H         1 <0>         0.0405
     45 H7          3.2093    1.4651    7.5043 H         1 <0>         0.0421
     46 H8          4.8545    2.6962    6.1728 H         1 <0>         0.0362
     47 H9          5.5771    2.2527    7.7153 H         1 <0>         0.0439
     48 H10         2.7581   -0.5070    6.0284 H         1 <0>         0.0350
     49 H11         3.0820    0.9603    5.1118 H         1 <0>         0.0428
     50 H12         7.1291    1.8519    5.8044 H         1 <0>         0.0663
     51 H13         6.7776    0.3814    6.7089 H         1 <0>         0.0466
     52 H14         5.0244   -1.3358    5.6600 H         1 <0>         0.0493
     53 H15         4.2965   -0.9219    4.1098 H         1 <0>         0.0520
     54 H16         3.4181    4.7133   -3.3051 H         1 <0>         0.0915
     55 H17         3.3944    4.0971   -1.6373 H         1 <0>         0.0601
     56 H18         4.0497    0.8441   -7.0524 H         1 <0>         0.0688
     57 H19         4.6431    2.4675   -7.3320 H         1 <0>         0.0630
     58 H20         2.8170    1.9026   -2.3635 H         1 <0>         0.0807
     59 H21         1.9588    2.8453   -3.5837 H         1 <0>         0.0380
     60 H22         3.3744    3.3723   -5.7123 H         1 <0>         0.0484
     61 H23         2.4818    1.8533   -5.7569 H         1 <0>         0.0697
     62 H24         5.7646    4.3810   -3.0694 H         1 <0>         0.0843
     63 H25         6.6942   -0.1508    4.3245 H         1 <0>         0.0831
     64 H26         7.8868    1.0311   -6.5450 H         1 <0>         0.0704
     65 H27         7.0672    2.3317   -7.3854 H         1 <0>         0.0718
     66 H28         7.6494    5.4516   -0.0948 H         1 <0>         0.0606
     67 H29         8.8216    4.2418    0.4157 H         1 <0>         0.0458
     68 H30         8.0356    6.7709    1.9287 H         1 <0>         0.0375
     69 H31         9.1825    5.5824    2.5383 H         1 <0>         0.0392
     70 H32         6.2171    4.9575    1.8728 H         1 <0>         0.0606
     71 H33         7.3929    3.7874    2.4660 H         1 <0>         0.0579
     72 H34         9.5108    7.2416   -0.0285 H         1 <0>         0.0571
     73 H35        10.6706    6.0303    0.5375 H         1 <0>         0.0503
     74 H36         7.0421    2.3587    0.4881 H         1 <0>         0.0993
     75 H37         4.9287   -0.2795   -4.8849 H         1 <0>         0.3700
     76 H38         6.6336   -0.5056   -5.1950 H         1 <0>         0.3660
     77 H39        11.2163    8.3531    1.3147 H         1 <0>         0.3465
     78 H40        10.4498    7.6340    2.7108 H         1 <0>         0.3446
     79 H41         5.1282    2.3120    4.0455 H         1 <0>         0.3148
     80 H42         5.4441    4.5531   -0.5557 H         1 <0>         0.3220
@<TRIPOS>BOND
     1    1    2 ar
     2    1    3 ar
     3    2    4 ar
     4    3    5 ar
     5    4    6 ar
     6    5    6 ar
     7    6   23 1
     8    7   22 1
     9    7   29 am
    10    7   35 2
    11    8    9 1
    12    8   28 1
    13    8   36 2
    14    9   33 am
    15    9   37 2
    16   10   20 1
    17   10   34 am
    18   10   38 2
    19   11   12 1
    20   11   13 1
    21   12   14 1
    22   13   15 1
    23   14   21 1
    24   15   21 1
    25   16   18 1
    26   16   20 1
    27   17   19 1
    28   17   22 1
    29   18   30 1
    30   19   30 1
    31   20   29 1
    32   21   33 1
    33   22   23 1
    34   22   31 1
    35   24   25 1
    36   24   26 1
    37   25   27 1
    38   26   28 1
    39   27   32 1
    40   28   34 1
    41   29   30 1
    42    1   39 1
    43    2   40 1
    44    3   41 1
    45    4   42 1
    46    5   43 1
    47   11   44 1
    48   11   45 1
    49   12   46 1
    50   12   47 1
    51   13   48 1
    52   13   49 1
    53   14   50 1
    54   14   51 1
    55   15   52 1
    56   15   53 1
    57   16   54 1
    58   16   55 1
    59   17   56 1
    60   17   57 1
    61   18   58 1
    62   18   59 1
    63   19   60 1
    64   19   61 1
    65   20   62 1
    66   21   63 1
    67   23   64 1
    68   23   65 1
    69   24   66 1
    70   24   67 1
    71   25   68 1
    72   25   69 1
    73   26   70 1
    74   26   71 1
    75   27   72 1
    76   27   73 1
    77   28   74 1
    78   31   75 1
    79   31   76 1
    80   32   77 1
    81   32   78 1
    82   33   79 1
    83   34   80 1
@<TRIPOS>MOLECULE
1a46_ligand_105
   80    83     0     0     0
SMALL
USER_CHARGES

mmff94s_NoEstat = 83.31
@<TRIPOS>ATOM
      1 C1         -5.9518    1.0529  -15.7574 C.ar      1 <0>        -0.1300
      2 C2         -4.7078    1.6646  -15.9115 C.ar      1 <0>        -0.1323
      3 C3         -6.6077    1.1063  -14.5275 C.ar      1 <0>        -0.1309
      4 C4         -4.1196    2.3297  -14.8357 C.ar      1 <0>        -0.1275
      5 C5         -6.0195    1.7714  -13.4517 C.ar      1 <0>        -0.1272
      6 C6         -4.7793    2.3787  -13.6128 C.ar      1 <0>        -0.0843
      7 C7         -2.6173    2.8751  -10.4447 C.2       1 <0>         0.6709
      8 C8          2.7796    3.2097   -6.1637 C.2       1 <0>         0.4867
      9 C9          2.0233    2.5606   -5.0416 C.2       1 <0>         0.5883
     10 C10        -0.0591    2.8141   -8.5012 C.2       1 <0>         0.6572
     11 C11        -2.2304    3.2606   -1.7811 C.3       1 <0>        -0.0802
     12 C12        -0.9342    3.8921   -1.2811 C.3       1 <0>        -0.0765
     13 C13        -1.9607    2.0515   -2.6723 C.3       1 <0>        -0.0774
     14 C14         0.0030    4.2439   -2.4351 C.3       1 <0>        -0.0953
     15 C15        -1.0251    2.4015   -3.8283 C.3       1 <0>        -0.0906
     16 C16        -1.5879    1.1654   -7.3921 C.3       1 <0>        -0.0871
     17 C17        -4.1019    0.9486  -11.1228 C.3       1 <0>        -0.0716
     18 C18        -1.5823    0.0424   -8.4274 C.3       1 <0>         0.1333
     19 C19        -3.5290    0.2485   -9.8784 C.3       1 <0>         0.1246
     20 C20        -1.4789    2.4202   -8.2321 C.3       1 <0>         0.0606
     21 C21         0.2802    3.0242   -3.3210 C.3       1 <0>         0.1012
     22 C22        -3.2673    2.1480  -11.6303 C.3       1 <0>         0.1554
     23 C23        -4.1466    3.0941  -12.4556 C.3       1 <0>        -0.0356
     24 C24         1.5857    6.0302   -6.5865 C.3       1 <0>        -0.0795
     25 C25         1.6811    7.5259   -6.9095 C.3       1 <0>        -0.1203
     26 C26         2.1570    5.1335   -7.6933 C.3       1 <0>        -0.0920
     27 C27         3.1174    8.0140   -7.0965 C.3       1 <0>         0.1502
     28 C28         2.0196    3.6328   -7.4097 C.3       1 <0>         0.0224
     29 N1         -2.0587    2.0261   -9.5019 N.am      1 <0>        -0.3553
     30 N2         -2.1349    0.6298   -9.6602 N.3       1 <0>        -0.4320
     31 N3         -2.1572    1.6877  -12.4773 N.3       1 <0>        -0.9031
     32 N4          3.1298    9.4451   -7.3814 N.3       1 <0>        -0.9068
     33 N5          1.1182    3.4132   -4.4536 N.am      1 <0>        -0.5526
     34 N6          0.6426    3.2153   -7.3763 N.am      1 <0>        -0.5576
     35 O1         -2.5899    4.1027  -10.3594 O.2       1 <0>        -0.6710
     36 O2          3.9949    3.2835   -6.0334 O.2       1 <0>        -0.4901
     37 O3          2.2923    1.4031   -4.7649 O.2       1 <0>        -0.5902
     38 O4          0.3766    2.7593   -9.6452 O.2       1 <0>        -0.5833
     39 H1         -6.4098    0.5350  -16.5951 H         1 <0>         0.1320
     40 H2         -4.1972    1.6230  -16.8692 H         1 <0>         0.1324
     41 H3         -7.5763    0.6298  -14.4076 H         1 <0>         0.1328
     42 H4         -3.1501    2.8034  -14.9651 H         1 <0>         0.1324
     43 H5         -6.5379    1.8077  -12.4972 H         1 <0>         0.1434
     44 H6         -2.8470    2.9587   -0.9269 H         1 <0>         0.0405
     45 H7         -2.8055    4.0065   -2.3434 H         1 <0>         0.0421
     46 H8         -1.1629    4.7951   -0.7038 H         1 <0>         0.0362
     47 H9         -0.4280    3.1969   -0.6001 H         1 <0>         0.0439
     48 H10        -1.5149    1.2478   -2.0735 H         1 <0>         0.0350
     49 H11        -2.9075    1.6673   -3.0683 H         1 <0>         0.0428
     50 H12        -0.4426    5.0491   -3.0339 H         1 <0>         0.0663
     51 H13         0.9453    4.6391   -2.0364 H         1 <0>         0.0466
     52 H14        -0.8073    1.4985   -4.4114 H         1 <0>         0.0493
     53 H15        -1.5324    3.0967   -4.5102 H         1 <0>         0.0520
     54 H16        -2.5475    1.1615   -6.8606 H         1 <0>         0.0915
     55 H17        -0.7842    1.0569   -6.6575 H         1 <0>         0.0601
     56 H18        -4.2204    0.2148  -11.9317 H         1 <0>         0.0688
     57 H19        -5.1178    1.2870  -10.8778 H         1 <0>         0.0630
     58 H20        -0.5477   -0.2605   -8.6286 H         1 <0>         0.0807
     59 H21        -2.1179   -0.8467   -8.0766 H         1 <0>         0.0380
     60 H22        -4.1468    0.5063   -9.0071 H         1 <0>         0.0484
     61 H23        -3.6100   -0.8367  -10.0142 H         1 <0>         0.0697
     62 H24        -2.0054    3.2790   -7.8063 H         1 <0>         0.0843
     63 H25         0.8524    2.2785   -2.7571 H         1 <0>         0.0831
     64 H26        -3.5359    3.9262  -12.8108 H         1 <0>         0.0704
     65 H27        -4.9137    3.5213  -11.8072 H         1 <0>         0.0718
     66 H28         2.1358    5.8550   -5.6547 H         1 <0>         0.0606
     67 H29         0.5392    5.7688   -6.3906 H         1 <0>         0.0458
     68 H30         1.1137    7.7088   -7.8313 H         1 <0>         0.0375
     69 H31         1.1884    8.1036   -6.1172 H         1 <0>         0.0392
     70 H32         3.2164    5.3787   -7.8393 H         1 <0>         0.0606
     71 H33         1.6466    5.3535   -8.6384 H         1 <0>         0.0579
     72 H34         3.5969    7.4758   -7.9212 H         1 <0>         0.0571
     73 H35         3.7066    7.8370   -6.1920 H         1 <0>         0.0503
     74 H36         2.4714    3.0747   -8.2388 H         1 <0>         0.0993
     75 H37        -1.7180    0.8294  -12.2371 H         1 <0>         0.3700
     76 H38        -1.7642    2.3382  -13.1175 H         1 <0>         0.3660
     77 H39         3.9964    9.8653   -7.6409 H         1 <0>         0.3465
     78 H40         2.3346    9.9846   -7.1136 H         1 <0>         0.3446
     79 H41         1.0281    4.3550   -4.8229 H         1 <0>         0.3148
     80 H42         0.1596    3.2148   -6.4798 H         1 <0>         0.3220
@<TRIPOS>BOND
     1    1    2 ar
     2    1    3 ar
     3    2    4 ar
     4    3    5 ar
     5    4    6 ar
     6    5    6 ar
     7    6   23 1
     8    7   22 1
     9    7   29 am
    10    7   35 2
    11    8    9 1
    12    8   28 1
    13    8   36 2
    14    9   33 am
    15    9   37 2
    16   10   20 1
    17   10   34 am
    18   10   38 2
    19   11   12 1
    20   11   13 1
    21   12   14 1
    22   13   15 1
    23   14   21 1
    24   15   21 1
    25   16   18 1
    26   16   20 1
    27   17   19 1
    28   17   22 1
    29   18   30 1
    30   19   30 1
    31   20   29 1
    32   21   33 1
    33   22   23 1
    34   22   31 1
    35   24   25 1
    36   24   26 1
    37   25   27 1
    38   26   28 1
    39   27   32 1
    40   28   34 1
    41   29   30 1
    42    1   39 1
    43    2   40 1
    44    3   41 1
    45    4   42 1
    46    5   43 1
    47   11   44 1
    48   11   45 1
    49   12   46 1
    50   12   47 1
    51   13   48 1
    52   13   49 1
    53   14   50 1
    54   14   51 1
    55   15   52 1
    56   15   53 1
    57   16   54 1
    58   16   55 1
    59   17   56 1
    60   17   57 1
    61   18   58 1
    62   18   59 1
    63   19   60 1
    64   19   61 1
    65   20   62 1
    66   21   63 1
    67   23   64 1
    68   23   65 1
    69   24   66 1
    70   24   67 1
    71   25   68 1
    72   25   69 1
    73   26   70 1
    74   26   71 1
    75   27   72 1
    76   27   73 1
    77   28   74 1
    78   31   75 1
    79   31   76 1
    80   32   77 1
    81   32   78 1
    82   33   79 1
    83   34   80 1
@<TRIPOS>MOLECULE
1a46_ligand_106
   80    83     0     0     0
SMALL
USER_CHARGES

mmff94s_NoEstat = 83.36
@<TRIPOS>ATOM
      1 C1          9.3427    1.2226  -10.2936 C.ar      1 <0>        -0.1300
      2 C2          9.9666    0.8172   -9.1138 C.ar      1 <0>        -0.1323
      3 C3          8.4336    2.2805  -10.2739 C.ar      1 <0>        -0.1309
      4 C4          9.6814    1.4695   -7.9143 C.ar      1 <0>        -0.1275
      5 C5          8.1485    2.9328   -9.0744 C.ar      1 <0>        -0.1272
      6 C6          8.7742    2.5231   -7.9024 C.ar      1 <0>        -0.0843
      7 C7          6.9710    3.2795   -4.5657 C.2       1 <0>         0.6709
      8 C8          5.2358    2.3798    1.5634 C.2       1 <0>         0.4867
      9 C9          5.6522    1.1980    2.3894 C.2       1 <0>         0.5883
     10 C10         5.7098    2.8119   -1.6475 C.2       1 <0>         0.6572
     11 C11         2.4616   -2.5517    2.7858 C.3       1 <0>        -0.0802
     12 C12         2.7458   -1.3819    3.7243 C.3       1 <0>        -0.0765
     13 C13         3.3149   -2.4881    1.5218 C.3       1 <0>        -0.0774
     14 C14         4.2358   -1.2710    4.0502 C.3       1 <0>        -0.0953
     15 C15         4.8036   -2.3750    1.8530 C.3       1 <0>        -0.0906
     16 C16         3.6624    3.2324   -3.0320 C.3       1 <0>        -0.0871
     17 C17         6.0388    2.5547   -6.7975 C.3       1 <0>        -0.0716
     18 C18         3.6514    1.9752   -3.8994 C.3       1 <0>         0.1333
     19 C19         4.6996    2.4463   -6.0480 C.3       1 <0>         0.1246
     20 C20         5.1372    3.5153   -2.8394 C.3       1 <0>         0.0606
     21 C21         5.1166   -1.2051    2.7954 C.3       1 <0>         0.1012
     22 C22         7.2891    2.5653   -5.8869 C.3       1 <0>         0.1554
     23 C23         8.4675    3.2247   -6.6121 C.3       1 <0>        -0.0356
     24 C24         8.0800    4.9598    0.7851 C.3       1 <0>        -0.0795
     25 C25         8.7880    6.0338    1.6192 C.3       1 <0>        -0.1203
     26 C26         6.9719    4.2276    1.5544 C.3       1 <0>        -0.0920
     27 C27         9.9095    6.7454    0.8629 C.3       1 <0>         0.1502
     28 C28         6.2906    3.1130    0.7514 C.3       1 <0>         0.0224
     29 N1          5.7488    2.9259   -4.0152 N.am      1 <0>        -0.3553
     30 N2          4.9069    2.0073   -4.6693 N.3       1 <0>        -0.4320
     31 N3          7.6768    1.1953   -5.5201 N.3       1 <0>        -0.9031
     32 N4         10.5470    7.7366    1.7233 N.3       1 <0>        -0.9068
     33 N5          4.9185    0.0703    2.1034 N.am      1 <0>        -0.5526
     34 N6          5.7762    3.5917   -0.5046 N.am      1 <0>        -0.5576
     35 O1          7.7474    4.0812   -4.0464 O.2       1 <0>        -0.6710
     36 O2          4.0675    2.7325    1.6631 O.2       1 <0>        -0.4901
     37 O3          6.5432    1.3575    3.2076 O.2       1 <0>        -0.5902
     38 O4          6.0670    1.6440   -1.7490 O.2       1 <0>        -0.5833
     39 H1          9.5646    0.7147  -11.2275 H         1 <0>         0.1320
     40 H2         10.6743   -0.0064   -9.1292 H         1 <0>         0.1324
     41 H3          7.9478    2.5960  -11.1926 H         1 <0>         0.1328
     42 H4         10.1723    1.1467   -7.0000 H         1 <0>         0.1324
     43 H5          7.4388    3.7559   -9.0687 H         1 <0>         0.1434
     44 H6          2.6613   -3.4941    3.3107 H         1 <0>         0.0405
     45 H7          1.3999   -2.5575    2.5144 H         1 <0>         0.0421
     46 H8          2.3966   -0.4501    3.2632 H         1 <0>         0.0362
     47 H9          2.1760   -1.5088    4.6520 H         1 <0>         0.0439
     48 H10         3.1411   -3.3847    0.9159 H         1 <0>         0.0350
     49 H11         3.0040   -1.6300    0.9138 H         1 <0>         0.0428
     50 H12         4.4027   -0.3853    4.6752 H         1 <0>         0.0663
     51 H13         4.5329   -2.1422    4.6479 H         1 <0>         0.0466
     52 H14         5.1334   -3.3097    2.3243 H         1 <0>         0.0493
     53 H15         5.3727   -2.2712    0.9212 H         1 <0>         0.0520
     54 H16         3.1996    4.0578   -3.5869 H         1 <0>         0.0915
     55 H17         3.1150    3.0948   -2.0945 H         1 <0>         0.0601
     56 H18         6.1186    1.7328   -7.5220 H         1 <0>         0.0688
     57 H19         6.0134    3.4760   -7.3953 H         1 <0>         0.0630
     58 H20         3.6705    1.0888   -3.2538 H         1 <0>         0.0807
     59 H21         2.7495    1.9066   -4.5175 H         1 <0>         0.0380
     60 H22         4.1937    3.4213   -6.0771 H         1 <0>         0.0484
     61 H23         4.0529    1.7380   -6.5798 H         1 <0>         0.0697
     62 H24         5.3721    4.5807   -2.7630 H         1 <0>         0.0843
     63 H25         6.1733   -1.2308    3.0814 H         1 <0>         0.0831
     64 H26         9.3395    3.2124   -5.9558 H         1 <0>         0.0704
     65 H27         8.2279    4.2735   -6.7972 H         1 <0>         0.0718
     66 H28         7.6494    5.4516   -0.0948 H         1 <0>         0.0606
     67 H29         8.8216    4.2418    0.4157 H         1 <0>         0.0458
     68 H30         8.0356    6.7709    1.9287 H         1 <0>         0.0375
     69 H31         9.1825    5.5824    2.5383 H         1 <0>         0.0392
     70 H32         6.2171    4.9575    1.8728 H         1 <0>         0.0606
     71 H33         7.3929    3.7874    2.4660 H         1 <0>         0.0579
     72 H34         9.5108    7.2416   -0.0285 H         1 <0>         0.0571
     73 H35        10.6706    6.0303    0.5375 H         1 <0>         0.0503
     74 H36         7.0421    2.3587    0.4881 H         1 <0>         0.0993
     75 H37         6.9507    0.5323   -5.3773 H         1 <0>         0.3700
     76 H38         8.6161    1.0420   -5.2343 H         1 <0>         0.3660
     77 H39        11.2163    8.3531    1.3147 H         1 <0>         0.3465
     78 H40        10.4498    7.6340    2.7108 H         1 <0>         0.3446
     79 H41         4.2076    0.1245    1.3800 H         1 <0>         0.3148
     80 H42         5.4441    4.5531   -0.5557 H         1 <0>         0.3220
@<TRIPOS>BOND
     1    1    2 ar
     2    1    3 ar
     3    2    4 ar
     4    3    5 ar
     5    4    6 ar
     6    5    6 ar
     7    6   23 1
     8    7   22 1
     9    7   29 am
    10    7   35 2
    11    8    9 1
    12    8   28 1
    13    8   36 2
    14    9   33 am
    15    9   37 2
    16   10   20 1
    17   10   34 am
    18   10   38 2
    19   11   12 1
    20   11   13 1
    21   12   14 1
    22   13   15 1
    23   14   21 1
    24   15   21 1
    25   16   18 1
    26   16   20 1
    27   17   19 1
    28   17   22 1
    29   18   30 1
    30   19   30 1
    31   20   29 1
    32   21   33 1
    33   22   23 1
    34   22   31 1
    35   24   25 1
    36   24   26 1
    37   25   27 1
    38   26   28 1
    39   27   32 1
    40   28   34 1
    41   29   30 1
    42    1   39 1
    43    2   40 1
    44    3   41 1
    45    4   42 1
    46    5   43 1
    47   11   44 1
    48   11   45 1
    49   12   46 1
    50   12   47 1
    51   13   48 1
    52   13   49 1
    53   14   50 1
    54   14   51 1
    55   15   52 1
    56   15   53 1
    57   16   54 1
    58   16   55 1
    59   17   56 1
    60   17   57 1
    61   18   58 1
    62   18   59 1
    63   19   60 1
    64   19   61 1
    65   20   62 1
    66   21   63 1
    67   23   64 1
    68   23   65 1
    69   24   66 1
    70   24   67 1
    71   25   68 1
    72   25   69 1
    73   26   70 1
    74   26   71 1
    75   27   72 1
    76   27   73 1
    77   28   74 1
    78   31   75 1
    79   31   76 1
    80   32   77 1
    81   32   78 1
    82   33   79 1
    83   34   80 1
@<TRIPOS>MOLECULE
1a46_ligand_107
   80    83     0     0     0
SMALL
USER_CHARGES

mmff94s_NoEstat = 83.40
@<TRIPOS>ATOM
      1 C1          9.3427    1.2226  -10.2936 C.ar      1 <0>        -0.1300
      2 C2          9.9666    0.8172   -9.1138 C.ar      1 <0>        -0.1323
      3 C3          8.4336    2.2805  -10.2739 C.ar      1 <0>        -0.1309
      4 C4          9.6814    1.4695   -7.9143 C.ar      1 <0>        -0.1275
      5 C5          8.1485    2.9328   -9.0744 C.ar      1 <0>        -0.1272
      6 C6          8.7742    2.5231   -7.9024 C.ar      1 <0>        -0.0843
      7 C7          6.9710    3.2795   -4.5657 C.2       1 <0>         0.6709
      8 C8          5.2358    2.3798    1.5634 C.2       1 <0>         0.4867
      9 C9          5.6522    1.1980    2.3894 C.2       1 <0>         0.5883
     10 C10         5.7098    2.8119   -1.6475 C.2       1 <0>         0.6572
     11 C11         2.4616   -2.5517    2.7858 C.3       1 <0>        -0.0802
     12 C12         2.7458   -1.3819    3.7243 C.3       1 <0>        -0.0765
     13 C13         3.3149   -2.4881    1.5218 C.3       1 <0>        -0.0774
     14 C14         4.2358   -1.2710    4.0502 C.3       1 <0>        -0.0953
     15 C15         4.8036   -2.3750    1.8530 C.3       1 <0>        -0.0906
     16 C16         3.6624    3.2324   -3.0320 C.3       1 <0>        -0.0871
     17 C17         6.0388    2.5547   -6.7975 C.3       1 <0>        -0.0716
     18 C18         3.6514    1.9752   -3.8994 C.3       1 <0>         0.1333
     19 C19         4.6996    2.4463   -6.0480 C.3       1 <0>         0.1246
     20 C20         5.1372    3.5153   -2.8394 C.3       1 <0>         0.0606
     21 C21         5.1166   -1.2051    2.7954 C.3       1 <0>         0.1012
     22 C22         7.2891    2.5653   -5.8869 C.3       1 <0>         0.1554
     23 C23         8.4675    3.2247   -6.6121 C.3       1 <0>        -0.0356
     24 C24         6.0158    5.3379    2.0114 C.3       1 <0>        -0.0795
     25 C25         6.7209    6.4716    2.7653 C.3       1 <0>        -0.1203
     26 C26         6.9719    4.2276    1.5544 C.3       1 <0>        -0.0920
     27 C27         5.7742    7.5909    3.1979 C.3       1 <0>         0.1502
     28 C28         6.2906    3.1130    0.7514 C.3       1 <0>         0.0224
     29 N1          5.7488    2.9259   -4.0152 N.am      1 <0>        -0.3553
     30 N2          4.9069    2.0073   -4.6693 N.3       1 <0>        -0.4320
     31 N3          7.6768    1.1953   -5.5201 N.3       1 <0>        -0.9031
     32 N4          6.5168    8.6391    3.8900 N.3       1 <0>        -0.9068
     33 N5          4.9185    0.0703    2.1034 N.am      1 <0>        -0.5526
     34 N6          5.7762    3.5917   -0.5046 N.am      1 <0>        -0.5576
     35 O1          7.7474    4.0812   -4.0464 O.2       1 <0>        -0.6710
     36 O2          4.0675    2.7325    1.6631 O.2       1 <0>        -0.4901
     37 O3          6.5432    1.3575    3.2076 O.2       1 <0>        -0.5902
     38 O4          6.0670    1.6440   -1.7490 O.2       1 <0>        -0.5833
     39 H1          9.5646    0.7147  -11.2275 H         1 <0>         0.1320
     40 H2         10.6743   -0.0064   -9.1292 H         1 <0>         0.1324
     41 H3          7.9478    2.5960  -11.1926 H         1 <0>         0.1328
     42 H4         10.1723    1.1467   -7.0000 H         1 <0>         0.1324
     43 H5          7.4388    3.7559   -9.0687 H         1 <0>         0.1434
     44 H6          2.6613   -3.4941    3.3107 H         1 <0>         0.0405
     45 H7          1.3999   -2.5575    2.5144 H         1 <0>         0.0421
     46 H8          2.3966   -0.4501    3.2632 H         1 <0>         0.0362
     47 H9          2.1760   -1.5088    4.6520 H         1 <0>         0.0439
     48 H10         3.1411   -3.3847    0.9159 H         1 <0>         0.0350
     49 H11         3.0040   -1.6300    0.9138 H         1 <0>         0.0428
     50 H12         4.4027   -0.3853    4.6752 H         1 <0>         0.0663
     51 H13         4.5329   -2.1422    4.6479 H         1 <0>         0.0466
     52 H14         5.1334   -3.3097    2.3243 H         1 <0>         0.0493
     53 H15         5.3727   -2.2712    0.9212 H         1 <0>         0.0520
     54 H16         3.1996    4.0578   -3.5869 H         1 <0>         0.0915
     55 H17         3.1150    3.0948   -2.0945 H         1 <0>         0.0601
     56 H18         6.1186    1.7328   -7.5220 H         1 <0>         0.0688
     57 H19         6.0134    3.4760   -7.3953 H         1 <0>         0.0630
     58 H20         3.6705    1.0888   -3.2538 H         1 <0>         0.0807
     59 H21         2.7495    1.9066   -4.5175 H         1 <0>         0.0380
     60 H22         4.1937    3.4213   -6.0771 H         1 <0>         0.0484
     61 H23         4.0529    1.7380   -6.5798 H         1 <0>         0.0697
     62 H24         5.3721    4.5807   -2.7630 H         1 <0>         0.0843
     63 H25         6.1733   -1.2308    3.0814 H         1 <0>         0.0831
     64 H26         9.3395    3.2124   -5.9558 H         1 <0>         0.0704
     65 H27         8.2279    4.2735   -6.7972 H         1 <0>         0.0718
     66 H28         5.2579    4.9142    2.6804 H         1 <0>         0.0606
     67 H29         5.4809    5.7546    1.1500 H         1 <0>         0.0458
     68 H30         7.2000    6.0392    3.6534 H         1 <0>         0.0375
     69 H31         7.5258    6.8807    2.1417 H         1 <0>         0.0392
     70 H32         7.4599    3.7926    2.4354 H         1 <0>         0.0606
     71 H33         7.7645    4.6634    0.9347 H         1 <0>         0.0579
     72 H34         4.9986    7.1962    3.8630 H         1 <0>         0.0571
     73 H35         5.2784    8.0349    2.3297 H         1 <0>         0.0503
     74 H36         7.0421    2.3587    0.4881 H         1 <0>         0.0993
     75 H37         6.9507    0.5323   -5.3773 H         1 <0>         0.3700
     76 H38         8.6161    1.0420   -5.2343 H         1 <0>         0.3660
     77 H39         5.9996    9.3711    4.3277 H         1 <0>         0.3465
     78 H40         7.4997    8.7018    3.7315 H         1 <0>         0.3446
     79 H41         4.2076    0.1245    1.3800 H         1 <0>         0.3148
     80 H42         5.4441    4.5531   -0.5557 H         1 <0>         0.3220
@<TRIPOS>BOND
     1    1    2 ar
     2    1    3 ar
     3    2    4 ar
     4    3    5 ar
     5    4    6 ar
     6    5    6 ar
     7    6   23 1
     8    7   22 1
     9    7   29 am
    10    7   35 2
    11    8    9 1
    12    8   28 1
    13    8   36 2
    14    9   33 am
    15    9   37 2
    16   10   20 1
    17   10   34 am
    18   10   38 2
    19   11   12 1
    20   11   13 1
    21   12   14 1
    22   13   15 1
    23   14   21 1
    24   15   21 1
    25   16   18 1
    26   16   20 1
    27   17   19 1
    28   17   22 1
    29   18   30 1
    30   19   30 1
    31   20   29 1
    32   21   33 1
    33   22   23 1
    34   22   31 1
    35   24   25 1
    36   24   26 1
    37   25   27 1
    38   26   28 1
    39   27   32 1
    40   28   34 1
    41   29   30 1
    42    1   39 1
    43    2   40 1
    44    3   41 1
    45    4   42 1
    46    5   43 1
    47   11   44 1
    48   11   45 1
    49   12   46 1
    50   12   47 1
    51   13   48 1
    52   13   49 1
    53   14   50 1
    54   14   51 1
    55   15   52 1
    56   15   53 1
    57   16   54 1
    58   16   55 1
    59   17   56 1
    60   17   57 1
    61   18   58 1
    62   18   59 1
    63   19   60 1
    64   19   61 1
    65   20   62 1
    66   21   63 1
    67   23   64 1
    68   23   65 1
    69   24   66 1
    70   24   67 1
    71   25   68 1
    72   25   69 1
    73   26   70 1
    74   26   71 1
    75   27   72 1
    76   27   73 1
    77   28   74 1
    78   31   75 1
    79   31   76 1
    80   32   77 1
    81   32   78 1
    82   33   79 1
    83   34   80 1
@<TRIPOS>MOLECULE
1a46_ligand_108
   80    83     0     0     0
SMALL
USER_CHARGES

mmff94s_NoEstat = 83.40
@<TRIPOS>ATOM
      1 C1         -4.4072   -3.0319  -14.4211 C.ar      1 <0>        -0.1300
      2 C2         -3.1014   -2.5683  -14.5810 C.ar      1 <0>        -0.1323
      3 C3         -5.2666   -2.3997  -13.5224 C.ar      1 <0>        -0.1309
      4 C4         -2.6549   -1.4727  -13.8421 C.ar      1 <0>        -0.1275
      5 C5         -4.8200   -1.3041  -12.7835 C.ar      1 <0>        -0.1272
      6 C6         -3.5171   -0.8478  -12.9482 C.ar      1 <0>        -0.0843
      7 C7         -1.9267    1.0916  -10.0042 C.2       1 <0>         0.6709
      8 C8          2.7796    3.2097   -6.1637 C.2       1 <0>         0.4867
      9 C9          4.2587    3.4565   -6.1009 C.2       1 <0>         0.5883
     10 C10         0.2181    1.9581   -7.7739 C.2       1 <0>         0.6572
     11 C11         8.9757    1.4639   -7.8314 C.3       1 <0>        -0.0802
     12 C12         8.5623    1.6823   -6.3787 C.3       1 <0>        -0.0765
     13 C13         8.3422    2.4973   -8.7587 C.3       1 <0>        -0.0774
     14 C14         7.0427    1.7177   -6.2244 C.3       1 <0>        -0.0953
     15 C15         6.8224    2.5330   -8.6075 C.3       1 <0>        -0.0906
     16 C16        -1.6423    1.0361   -6.3687 C.3       1 <0>        -0.0871
     17 C17        -3.4475   -0.9240   -9.9997 C.3       1 <0>        -0.0716
     18 C18        -1.5606   -0.4439   -6.7372 C.3       1 <0>         0.1333
     19 C19        -3.1819   -0.9495   -8.4846 C.3       1 <0>         0.1246
     20 C20        -1.2590    1.7411   -7.6524 C.3       1 <0>         0.0606
     21 C21         6.4119    2.7646   -7.1492 C.3       1 <0>         0.1012
     22 C22        -2.4199   -0.1108  -10.8216 C.3       1 <0>         0.1554
     23 C23        -3.0368    0.3307  -12.1535 C.3       1 <0>        -0.0356
     24 C24         1.4445    5.5921   -8.9731 C.3       1 <0>        -0.0795
     25 C25         1.6370    7.0835   -9.2718 C.3       1 <0>        -0.1203
     26 C26         2.1570    5.1335   -7.6933 C.3       1 <0>        -0.0920
     27 C27         0.9502    7.5360  -10.5601 C.3       1 <0>         0.1502
     28 C28         2.0196    3.6328   -7.4097 C.3       1 <0>         0.0224
     29 N1         -1.6352    0.7917   -8.6825 N.am      1 <0>        -0.3553
     30 N2         -1.8196   -0.5121   -8.1858 N.3       1 <0>        -0.4320
     31 N3         -1.2259   -0.9195  -11.1076 N.3       1 <0>        -0.9031
     32 N4          1.1922    8.9569  -10.7874 N.3       1 <0>        -0.9068
     33 N5          4.9558    2.7197   -7.0299 N.am      1 <0>        -0.5526
     34 N6          0.6426    3.2153   -7.3763 N.am      1 <0>        -0.5576
     35 O1         -1.7935    2.2123  -10.4955 O.2       1 <0>        -0.6710
     36 O2          2.2586    2.7495   -5.1557 O.2       1 <0>        -0.4901
     37 O3          4.6736    4.2333   -5.2564 O.2       1 <0>        -0.5902
     38 O4          0.9290    1.0536   -8.1959 O.2       1 <0>        -0.5833
     39 H1         -4.7549   -3.8850  -14.9963 H         1 <0>         0.1320
     40 H2         -2.4324   -3.0606  -15.2808 H         1 <0>         0.1324
     41 H3         -6.2832   -2.7609  -13.3979 H         1 <0>         0.1328
     42 H4         -1.6358   -1.1186  -13.9733 H         1 <0>         0.1324
     43 H5         -5.4966   -0.8180  -12.0857 H         1 <0>         0.1434
     44 H6         10.0672    1.5130   -7.9155 H         1 <0>         0.0405
     45 H7          8.6750    0.4576   -8.1481 H         1 <0>         0.0421
     46 H8          8.9775    0.8840   -5.7533 H         1 <0>         0.0362
     47 H9          8.9870    2.6264   -6.0159 H         1 <0>         0.0439
     48 H10         8.7538    3.4895   -8.5363 H         1 <0>         0.0350
     49 H11         8.6037    2.2687   -9.7981 H         1 <0>         0.0428
     50 H12         6.6307    0.7243   -6.4460 H         1 <0>         0.0663
     51 H13         6.7838    1.9350   -5.1810 H         1 <0>         0.0466
     52 H14         6.4082    3.3249   -9.2434 H         1 <0>         0.0493
     53 H15         6.3975    1.5882   -8.9715 H         1 <0>         0.0520
     54 H16        -2.6779    1.2865   -6.1074 H         1 <0>         0.0915
     55 H17        -0.9998    1.2887   -5.5196 H         1 <0>         0.0601
     56 H18        -3.4897   -1.9539  -10.3797 H         1 <0>         0.0688
     57 H19        -4.4523   -0.5086  -10.1558 H         1 <0>         0.0630
     58 H20        -0.5419   -0.8072   -6.5560 H         1 <0>         0.0807
     59 H21        -2.2364   -1.0589   -6.1327 H         1 <0>         0.0380
     60 H22        -3.9187   -0.3080   -7.9817 H         1 <0>         0.0484
     61 H23        -3.3442   -1.9688   -8.1140 H         1 <0>         0.0697
     62 H24        -1.7661    2.6997   -7.7936 H         1 <0>         0.0843
     63 H25         6.7153    3.7695   -6.8335 H         1 <0>         0.0831
     64 H26        -2.2923    0.8934  -12.7197 H         1 <0>         0.0704
     65 H27        -3.8625    1.0157  -11.9521 H         1 <0>         0.0718
     66 H28         0.3683    5.4079   -8.8774 H         1 <0>         0.0606
     67 H29         1.7918    5.0040   -9.8306 H         1 <0>         0.0458
     68 H30         1.2300    7.6523   -8.4256 H         1 <0>         0.0375
     69 H31         2.7093    7.3123   -9.3176 H         1 <0>         0.0392
     70 H32         1.7604    5.7005   -6.8419 H         1 <0>         0.0606
     71 H33         3.2243    5.3739   -7.7660 H         1 <0>         0.0579
     72 H34        -0.1287    7.3572  -10.4981 H         1 <0>         0.0571
     73 H35         1.3345    6.9786  -11.4193 H         1 <0>         0.0503
     74 H36         2.4714    3.0747   -8.2388 H         1 <0>         0.0993
     75 H37        -0.9249   -1.5612  -10.4112 H         1 <0>         0.3700
     76 H38        -0.6609   -0.6518  -11.8799 H         1 <0>         0.3660
     77 H39         0.7014    9.4044  -11.5317 H         1 <0>         0.3465
     78 H40         1.9755    9.3785  -10.3359 H         1 <0>         0.3446
     79 H41         4.4356    2.1176   -7.6610 H         1 <0>         0.3148
     80 H42        -0.0552    3.8781   -7.0434 H         1 <0>         0.3220
@<TRIPOS>BOND
     1    1    2 ar
     2    1    3 ar
     3    2    4 ar
     4    3    5 ar
     5    4    6 ar
     6    5    6 ar
     7    6   23 1
     8    7   22 1
     9    7   29 am
    10    7   35 2
    11    8    9 1
    12    8   28 1
    13    8   36 2
    14    9   33 am
    15    9   37 2
    16   10   20 1
    17   10   34 am
    18   10   38 2
    19   11   12 1
    20   11   13 1
    21   12   14 1
    22   13   15 1
    23   14   21 1
    24   15   21 1
    25   16   18 1
    26   16   20 1
    27   17   19 1
    28   17   22 1
    29   18   30 1
    30   19   30 1
    31   20   29 1
    32   21   33 1
    33   22   23 1
    34   22   31 1
    35   24   25 1
    36   24   26 1
    37   25   27 1
    38   26   28 1
    39   27   32 1
    40   28   34 1
    41   29   30 1
    42    1   39 1
    43    2   40 1
    44    3   41 1
    45    4   42 1
    46    5   43 1
    47   11   44 1
    48   11   45 1
    49   12   46 1
    50   12   47 1
    51   13   48 1
    52   13   49 1
    53   14   50 1
    54   14   51 1
    55   15   52 1
    56   15   53 1
    57   16   54 1
    58   16   55 1
    59   17   56 1
    60   17   57 1
    61   18   58 1
    62   18   59 1
    63   19   60 1
    64   19   61 1
    65   20   62 1
    66   21   63 1
    67   23   64 1
    68   23   65 1
    69   24   66 1
    70   24   67 1
    71   25   68 1
    72   25   69 1
    73   26   70 1
    74   26   71 1
    75   27   72 1
    76   27   73 1
    77   28   74 1
    78   31   75 1
    79   31   76 1
    80   32   77 1
    81   32   78 1
    82   33   79 1
    83   34   80 1
@<TRIPOS>MOLECULE
1a46_ligand_109
   80    83     0     0     0
SMALL
USER_CHARGES

mmff94s_NoEstat = 83.44
@<TRIPOS>ATOM
      1 C1         -6.7822    9.5030   -7.7682 C.ar      1 <0>        -0.1300
      2 C2         -5.4163    9.7853   -7.7613 C.ar      1 <0>        -0.1323
      3 C3         -7.2347    8.2371   -7.3962 C.ar      1 <0>        -0.1309
      4 C4         -4.5027    8.8017   -7.3825 C.ar      1 <0>        -0.1275
      5 C5         -6.3211    7.2534   -7.0174 C.ar      1 <0>        -0.1272
      6 C6         -4.9611    7.5422   -7.0130 C.ar      1 <0>        -0.0843
      7 C7         -2.5118    4.5743   -7.4005 C.2       1 <0>         0.6709
      8 C8          2.7796    3.2097   -6.1637 C.2       1 <0>         0.4867
      9 C9          2.2829    2.0299   -5.3801 C.2       1 <0>         0.5883
     10 C10        -0.0591    2.8141   -8.5012 C.2       1 <0>         0.6572
     11 C11        -0.0952    0.7327   -0.7029 C.3       1 <0>        -0.0802
     12 C12         1.2544    0.2267   -1.2045 C.3       1 <0>        -0.0765
     13 C13        -1.0596    1.0010   -1.8548 C.3       1 <0>        -0.0774
     14 C14         1.8632    1.1742   -2.2367 C.3       1 <0>        -0.0953
     15 C15        -0.4535    1.9500   -2.8873 C.3       1 <0>        -0.0906
     16 C16        -2.0373    1.4899   -9.2879 C.3       1 <0>        -0.0871
     17 C17        -4.7351    5.0124   -8.5142 C.3       1 <0>        -0.0716
     18 C18        -2.6100    2.4429  -10.3352 C.3       1 <0>         0.1333
     19 C19        -4.4053    3.7655   -9.3528 C.3       1 <0>         0.1246
     20 C20        -1.4789    2.4202   -8.2321 C.3       1 <0>         0.0606
     21 C21         0.8958    1.4320   -3.3972 C.3       1 <0>         0.1012
     22 C22        -3.5177    5.6586   -7.8120 C.3       1 <0>         0.1554
     23 C23        -3.9784    6.4841   -6.6055 C.3       1 <0>        -0.0356
     24 C24         1.4445    5.5921   -8.9731 C.3       1 <0>        -0.0795
     25 C25         1.6370    7.0835   -9.2718 C.3       1 <0>        -0.1203
     26 C26         2.1570    5.1335   -7.6933 C.3       1 <0>        -0.0920
     27 C27         0.9502    7.5360  -10.5601 C.3       1 <0>         0.1502
     28 C28         2.0196    3.6328   -7.4097 C.3       1 <0>         0.0224
     29 N1         -2.2867    3.6162   -8.3768 N.am      1 <0>        -0.3553
     30 N2         -2.9688    3.6719   -9.6065 N.3       1 <0>        -0.4320
     31 N3         -2.7962    6.5469   -8.7349 N.3       1 <0>        -0.9031
     32 N4          1.1922    8.9569  -10.7874 N.3       1 <0>        -0.9068
     33 N5          1.4800    2.3978   -4.3257 N.am      1 <0>        -0.5526
     34 N6          0.6426    3.2153   -7.3763 N.am      1 <0>        -0.5576
     35 O1         -1.9526    4.5762   -6.3040 O.2       1 <0>        -0.6710
     36 O2          3.8302    3.7133   -5.7870 O.2       1 <0>        -0.4901
     37 O3          2.6437    0.9181   -5.7301 O.2       1 <0>        -0.5902
     38 O4          0.3766    2.7593   -9.6452 O.2       1 <0>        -0.5833
     39 H1         -7.4936   10.2689   -8.0633 H         1 <0>         0.1320
     40 H2         -5.0642   10.7711   -8.0510 H         1 <0>         0.1324
     41 H3         -8.2983    8.0173   -7.4018 H         1 <0>         0.1328
     42 H4         -3.4404    9.0308   -7.3802 H         1 <0>         0.1324
     43 H5         -6.6828    6.2700   -6.7292 H         1 <0>         0.1434
     44 H6         -0.5335   -0.0026   -0.0187 H         1 <0>         0.0405
     45 H7          0.0526    1.6558   -0.1291 H         1 <0>         0.0421
     46 H8          1.9422    0.1116   -0.3592 H         1 <0>         0.0362
     47 H9          1.1287   -0.7669   -1.6521 H         1 <0>         0.0439
     48 H10        -1.3217    0.0532   -2.3408 H         1 <0>         0.0350
     49 H11        -1.9903    1.4277   -1.4641 H         1 <0>         0.0428
     50 H12         2.1267    2.1226   -1.7501 H         1 <0>         0.0663
     51 H13         2.8005    0.7504   -2.6175 H         1 <0>         0.0466
     52 H14        -1.1488    2.0728   -3.7266 H         1 <0>         0.0493
     53 H15        -0.3286    2.9446   -2.4393 H         1 <0>         0.0520
     54 H16        -2.8519    0.8938   -8.8584 H         1 <0>         0.0915
     55 H17        -1.2935    0.8073   -9.7102 H         1 <0>         0.0601
     56 H18        -5.2314    5.7584   -9.1499 H         1 <0>         0.0688
     57 H19        -5.4801    4.7212   -7.7613 H         1 <0>         0.0630
     58 H20        -1.8289    2.6942  -11.0628 H         1 <0>         0.0807
     59 H21        -3.4401    1.9950  -10.8925 H         1 <0>         0.0380
     60 H22        -4.7690    2.8732   -8.8248 H         1 <0>         0.0484
     61 H23        -4.9562    3.8199  -10.2995 H         1 <0>         0.0697
     62 H24        -1.5441    2.0192   -7.2167 H         1 <0>         0.0843
     63 H25         0.7468    0.5082   -3.9681 H         1 <0>         0.0831
     64 H26        -3.1056    6.9377   -6.1322 H         1 <0>         0.0704
     65 H27        -4.4243    5.8149   -5.8674 H         1 <0>         0.0718
     66 H28         0.3683    5.4079   -8.8774 H         1 <0>         0.0606
     67 H29         1.7918    5.0040   -9.8306 H         1 <0>         0.0458
     68 H30         1.2300    7.6523   -8.4256 H         1 <0>         0.0375
     69 H31         2.7093    7.3123   -9.3176 H         1 <0>         0.0392
     70 H32         1.7604    5.7005   -6.8419 H         1 <0>         0.0606
     71 H33         3.2243    5.3739   -7.7660 H         1 <0>         0.0579
     72 H34        -0.1287    7.3572  -10.4981 H         1 <0>         0.0571
     73 H35         1.3345    6.9786  -11.4193 H         1 <0>         0.0503
     74 H36         2.4714    3.0747   -8.2388 H         1 <0>         0.0993
     75 H37        -2.7475    6.2791   -9.6905 H         1 <0>         0.3700
     76 H38        -2.2234    7.2564   -8.3400 H         1 <0>         0.3660
     77 H39         0.7014    9.4044  -11.5317 H         1 <0>         0.3465
     78 H40         1.9755    9.3785  -10.3359 H         1 <0>         0.3446
     79 H41         1.2844    3.3846   -4.1861 H         1 <0>         0.3148
     80 H42         0.1596    3.2148   -6.4798 H         1 <0>         0.3220
@<TRIPOS>BOND
     1    1    2 ar
     2    1    3 ar
     3    2    4 ar
     4    3    5 ar
     5    4    6 ar
     6    5    6 ar
     7    6   23 1
     8    7   22 1
     9    7   29 am
    10    7   35 2
    11    8    9 1
    12    8   28 1
    13    8   36 2
    14    9   33 am
    15    9   37 2
    16   10   20 1
    17   10   34 am
    18   10   38 2
    19   11   12 1
    20   11   13 1
    21   12   14 1
    22   13   15 1
    23   14   21 1
    24   15   21 1
    25   16   18 1
    26   16   20 1
    27   17   19 1
    28   17   22 1
    29   18   30 1
    30   19   30 1
    31   20   29 1
    32   21   33 1
    33   22   23 1
    34   22   31 1
    35   24   25 1
    36   24   26 1
    37   25   27 1
    38   26   28 1
    39   27   32 1
    40   28   34 1
    41   29   30 1
    42    1   39 1
    43    2   40 1
    44    3   41 1
    45    4   42 1
    46    5   43 1
    47   11   44 1
    48   11   45 1
    49   12   46 1
    50   12   47 1
    51   13   48 1
    52   13   49 1
    53   14   50 1
    54   14   51 1
    55   15   52 1
    56   15   53 1
    57   16   54 1
    58   16   55 1
    59   17   56 1
    60   17   57 1
    61   18   58 1
    62   18   59 1
    63   19   60 1
    64   19   61 1
    65   20   62 1
    66   21   63 1
    67   23   64 1
    68   23   65 1
    69   24   66 1
    70   24   67 1
    71   25   68 1
    72   25   69 1
    73   26   70 1
    74   26   71 1
    75   27   72 1
    76   27   73 1
    77   28   74 1
    78   31   75 1
    79   31   76 1
    80   32   77 1
    81   32   78 1
    82   33   79 1
    83   34   80 1
@<TRIPOS>MOLECULE
1a46_ligand_110
   80    83     0     0     0
SMALL
USER_CHARGES

mmff94s_NoEstat = 83.45
@<TRIPOS>ATOM
      1 C1          9.3427    1.2226  -10.2936 C.ar      1 <0>        -0.1300
      2 C2          9.9666    0.8172   -9.1138 C.ar      1 <0>        -0.1323
      3 C3          8.4336    2.2805  -10.2739 C.ar      1 <0>        -0.1309
      4 C4          9.6814    1.4695   -7.9143 C.ar      1 <0>        -0.1275
      5 C5          8.1485    2.9328   -9.0744 C.ar      1 <0>        -0.1272
      6 C6          8.7742    2.5231   -7.9024 C.ar      1 <0>        -0.0843
      7 C7          6.9710    3.2795   -4.5657 C.2       1 <0>         0.6709
      8 C8          5.2358    2.3798    1.5634 C.2       1 <0>         0.4867
      9 C9          5.6457    1.7076    2.8411 C.2       1 <0>         0.5883
     10 C10         5.7098    2.8119   -1.6475 C.2       1 <0>         0.6572
     11 C11         2.8486    2.3942    6.8538 C.3       1 <0>        -0.0802
     12 C12         3.8094    3.5162    6.4691 C.3       1 <0>        -0.0765
     13 C13         2.9140    1.2269    5.8726 C.3       1 <0>        -0.0774
     14 C14         5.2382    2.9990    6.2966 C.3       1 <0>        -0.0953
     15 C15         4.3449    0.7149    5.7018 C.3       1 <0>        -0.0906
     16 C16         3.6624    3.2324   -3.0320 C.3       1 <0>        -0.0871
     17 C17         6.0388    2.5547   -6.7975 C.3       1 <0>        -0.0716
     18 C18         3.6514    1.9752   -3.8994 C.3       1 <0>         0.1333
     19 C19         4.6996    2.4463   -6.0480 C.3       1 <0>         0.1246
     20 C20         5.1372    3.5153   -2.8394 C.3       1 <0>         0.0606
     21 C21         5.3317    1.8242    5.3139 C.3       1 <0>         0.1012
     22 C22         7.2891    2.5653   -5.8869 C.3       1 <0>         0.1554
     23 C23         8.4675    3.2247   -6.6121 C.3       1 <0>        -0.0356
     24 C24         8.0800    4.9598    0.7851 C.3       1 <0>        -0.0795
     25 C25         8.7880    6.0338    1.6192 C.3       1 <0>        -0.1203
     26 C26         6.9719    4.2276    1.5544 C.3       1 <0>        -0.0920
     27 C27         9.9095    6.7454    0.8629 C.3       1 <0>         0.1502
     28 C28         6.2906    3.1130    0.7514 C.3       1 <0>         0.0224
     29 N1          5.7488    2.9259   -4.0152 N.am      1 <0>        -0.3553
     30 N2          4.9069    2.0073   -4.6693 N.3       1 <0>        -0.4320
     31 N3          7.6768    1.1953   -5.5201 N.3       1 <0>        -0.9031
     32 N4         10.5470    7.7366    1.7233 N.3       1 <0>        -0.9068
     33 N5          5.0674    2.2831    3.9484 N.am      1 <0>        -0.5526
     34 N6          5.7762    3.5917   -0.5046 N.am      1 <0>        -0.5576
     35 O1          7.7474    4.0812   -4.0464 O.2       1 <0>        -0.6710
     36 O2          4.0412    2.3628    1.2952 O.2       1 <0>        -0.4901
     37 O3          6.4307    0.7761    2.7710 O.2       1 <0>        -0.5902
     38 O4          6.0670    1.6440   -1.7490 O.2       1 <0>        -0.5833
     39 H1          9.5646    0.7147  -11.2275 H         1 <0>         0.1320
     40 H2         10.6743   -0.0064   -9.1292 H         1 <0>         0.1324
     41 H3          7.9478    2.5960  -11.1926 H         1 <0>         0.1328
     42 H4         10.1723    1.1467   -7.0000 H         1 <0>         0.1324
     43 H5          7.4388    3.7559   -9.0687 H         1 <0>         0.1434
     44 H6          3.0952    2.0354    7.8608 H         1 <0>         0.0405
     45 H7          1.8251    2.7835    6.8965 H         1 <0>         0.0421
     46 H8          3.4697    3.9852    5.5378 H         1 <0>         0.0362
     47 H9          3.7921    4.2948    7.2403 H         1 <0>         0.0439
     48 H10         2.2729    0.4120    6.2280 H         1 <0>         0.0350
     49 H11         2.5148    1.5431    4.9013 H         1 <0>         0.0428
     50 H12         5.8813    3.8223    5.9625 H         1 <0>         0.0663
     51 H13         5.6180    2.6759    7.2742 H         1 <0>         0.0466
     52 H14         4.6733    0.2604    6.6452 H         1 <0>         0.0493
     53 H15         4.3549   -0.0798    4.9460 H         1 <0>         0.0520
     54 H16         3.1996    4.0578   -3.5869 H         1 <0>         0.0915
     55 H17         3.1150    3.0948   -2.0945 H         1 <0>         0.0601
     56 H18         6.1186    1.7328   -7.5220 H         1 <0>         0.0688
     57 H19         6.0134    3.4760   -7.3953 H         1 <0>         0.0630
     58 H20         3.6705    1.0888   -3.2538 H         1 <0>         0.0807
     59 H21         2.7495    1.9066   -4.5175 H         1 <0>         0.0380
     60 H22         4.1937    3.4213   -6.0771 H         1 <0>         0.0484
     61 H23         4.0529    1.7380   -6.5798 H         1 <0>         0.0697
     62 H24         5.3721    4.5807   -2.7630 H         1 <0>         0.0843
     63 H25         6.3523    1.4273    5.3051 H         1 <0>         0.0831
     64 H26         9.3395    3.2124   -5.9558 H         1 <0>         0.0704
     65 H27         8.2279    4.2735   -6.7972 H         1 <0>         0.0718
     66 H28         7.6494    5.4516   -0.0948 H         1 <0>         0.0606
     67 H29         8.8216    4.2418    0.4157 H         1 <0>         0.0458
     68 H30         8.0356    6.7709    1.9287 H         1 <0>         0.0375
     69 H31         9.1825    5.5824    2.5383 H         1 <0>         0.0392
     70 H32         6.2171    4.9575    1.8728 H         1 <0>         0.0606
     71 H33         7.3929    3.7874    2.4660 H         1 <0>         0.0579
     72 H34         9.5108    7.2416   -0.0285 H         1 <0>         0.0571
     73 H35        10.6706    6.0303    0.5375 H         1 <0>         0.0503
     74 H36         7.0421    2.3587    0.4881 H         1 <0>         0.0993
     75 H37         6.9507    0.5323   -5.3773 H         1 <0>         0.3700
     76 H38         8.6161    1.0420   -5.2343 H         1 <0>         0.3660
     77 H39        11.2163    8.3531    1.3147 H         1 <0>         0.3465
     78 H40        10.4498    7.6340    2.7108 H         1 <0>         0.3446
     79 H41         4.4287    3.0611    3.8132 H         1 <0>         0.3148
     80 H42         5.4441    4.5531   -0.5557 H         1 <0>         0.3220
@<TRIPOS>BOND
     1    1    2 ar
     2    1    3 ar
     3    2    4 ar
     4    3    5 ar
     5    4    6 ar
     6    5    6 ar
     7    6   23 1
     8    7   22 1
     9    7   29 am
    10    7   35 2
    11    8    9 1
    12    8   28 1
    13    8   36 2
    14    9   33 am
    15    9   37 2
    16   10   20 1
    17   10   34 am
    18   10   38 2
    19   11   12 1
    20   11   13 1
    21   12   14 1
    22   13   15 1
    23   14   21 1
    24   15   21 1
    25   16   18 1
    26   16   20 1
    27   17   19 1
    28   17   22 1
    29   18   30 1
    30   19   30 1
    31   20   29 1
    32   21   33 1
    33   22   23 1
    34   22   31 1
    35   24   25 1
    36   24   26 1
    37   25   27 1
    38   26   28 1
    39   27   32 1
    40   28   34 1
    41   29   30 1
    42    1   39 1
    43    2   40 1
    44    3   41 1
    45    4   42 1
    46    5   43 1
    47   11   44 1
    48   11   45 1
    49   12   46 1
    50   12   47 1
    51   13   48 1
    52   13   49 1
    53   14   50 1
    54   14   51 1
    55   15   52 1
    56   15   53 1
    57   16   54 1
    58   16   55 1
    59   17   56 1
    60   17   57 1
    61   18   58 1
    62   18   59 1
    63   19   60 1
    64   19   61 1
    65   20   62 1
    66   21   63 1
    67   23   64 1
    68   23   65 1
    69   24   66 1
    70   24   67 1
    71   25   68 1
    72   25   69 1
    73   26   70 1
    74   26   71 1
    75   27   72 1
    76   27   73 1
    77   28   74 1
    78   31   75 1
    79   31   76 1
    80   32   77 1
    81   32   78 1
    82   33   79 1
    83   34   80 1
@<TRIPOS>MOLECULE
1a46_ligand_111
   80    83     0     0     0
SMALL
USER_CHARGES

mmff94s_NoEstat = 83.47
@<TRIPOS>ATOM
      1 C1         -2.6445   10.2618   -2.2387 C.ar      1 <0>        -0.1300
      2 C2         -2.3767    9.6884   -0.9957 C.ar      1 <0>        -0.1323
      3 C3         -2.1497    9.6701   -3.4009 C.ar      1 <0>        -0.1309
      4 C4         -1.6141    8.5233   -0.9148 C.ar      1 <0>        -0.1275
      5 C5         -1.3871    8.5049   -3.3201 C.ar      1 <0>        -0.1272
      6 C6         -1.1243    7.9391   -2.0776 C.ar      1 <0>        -0.0843
      7 C7          2.0326    5.7272   -1.7627 C.2       1 <0>         0.6709
      8 C8          5.2358    2.3798    1.5634 C.2       1 <0>         0.4867
      9 C9          5.6457    1.7076    2.8411 C.2       1 <0>         0.5883
     10 C10         4.7954    4.5647   -0.6048 C.2       1 <0>         0.6572
     11 C11         9.7235   -1.0796    2.8207 C.3       1 <0>        -0.0802
     12 C12         8.4526   -1.6930    2.2388 C.3       1 <0>        -0.0765
     13 C13         9.4972    0.3517    3.3002 C.3       1 <0>        -0.0774
     14 C14         7.2832   -1.6014    3.2201 C.3       1 <0>        -0.0953
     15 C15         8.3255    0.4384    4.2793 C.3       1 <0>        -0.0906
     16 C16         5.5346    5.5870   -2.7713 C.3       1 <0>        -0.0871
     17 C17         1.6625    7.8714   -3.0437 C.3       1 <0>        -0.0716
     18 C18         5.3303    7.0689   -2.4625 C.3       1 <0>         0.1333
     19 C19         3.1731    7.8019   -3.3266 C.3       1 <0>         0.1246
     20 C20         4.4137    4.9104   -2.0113 C.3       1 <0>         0.0606
     21 C21         7.0342   -0.1713    3.7178 C.3       1 <0>         0.1012
     22 C22         1.1885    7.0064   -1.8522 C.3       1 <0>         0.1554
     23 C23        -0.3040    6.6858   -1.9906 C.3       1 <0>        -0.0356
     24 C24         8.0800    4.9598    0.7851 C.3       1 <0>        -0.0795
     25 C25         8.7880    6.0338    1.6192 C.3       1 <0>        -0.1203
     26 C26         6.9719    4.2276    1.5544 C.3       1 <0>        -0.0920
     27 C27         9.9095    6.7454    0.8629 C.3       1 <0>         0.1502
     28 C28         6.2906    3.1130    0.7514 C.3       1 <0>         0.0224
     29 N1          3.3921    5.9372   -1.9343 N.am      1 <0>        -0.3553
     30 N2          3.8913    7.2279   -2.1903 N.3       1 <0>        -0.4320
     31 N3          1.3958    7.7147   -0.5806 N.3       1 <0>        -0.9031
     32 N4         10.5470    7.7366    1.7233 N.3       1 <0>        -0.9068
     33 N5          6.5118    0.6599    2.6310 N.am      1 <0>        -0.5526
     34 N6          5.7762    3.5917   -0.5046 N.am      1 <0>        -0.5576
     35 O1          1.5345    4.6231   -1.5437 O.2       1 <0>        -0.6710
     36 O2          4.0412    2.3628    1.2952 O.2       1 <0>        -0.4901
     37 O3          5.1730    2.1266    3.8850 O.2       1 <0>        -0.5902
     38 O4          4.2448    5.1367    0.3286 O.2       1 <0>        -0.5833
     39 H1         -3.2382   11.1691   -2.3016 H         1 <0>         0.1320
     40 H2         -2.7620   10.1493   -0.0908 H         1 <0>         0.1324
     41 H3         -2.3582   10.1168   -4.3687 H         1 <0>         0.1328
     42 H4         -1.4106    8.0836    0.0580 H         1 <0>         0.1324
     43 H5         -1.0058    8.0510   -4.2309 H         1 <0>         0.1434
     44 H6         10.0697   -1.6931    3.6617 H         1 <0>         0.0405
     45 H7         10.5190   -1.0948    2.0671 H         1 <0>         0.0421
     46 H8          8.1939   -1.1805    1.3044 H         1 <0>         0.0362
     47 H9          8.6355   -2.7431    1.9836 H         1 <0>         0.0439
     48 H10        10.4072    0.7253    3.7834 H         1 <0>         0.0350
     49 H11         9.3078    1.0008    2.4368 H         1 <0>         0.0428
     50 H12         6.3793   -1.9968    2.7410 H         1 <0>         0.0663
     51 H13         7.4938   -2.2464    4.0826 H         1 <0>         0.0466
     52 H14         8.5960   -0.0894    5.2028 H         1 <0>         0.0493
     53 H15         8.1600    1.4882    4.5503 H         1 <0>         0.0520
     54 H16         5.4011    5.4209   -3.8475 H         1 <0>         0.0915
     55 H17         6.5319    5.2374   -2.4876 H         1 <0>         0.0601
     56 H18         1.3705    8.9173   -2.8778 H         1 <0>         0.0688
     57 H19         1.1370    7.5576   -3.9559 H         1 <0>         0.0630
     58 H20         5.8802    7.3284   -1.5498 H         1 <0>         0.0807
     59 H21         5.7080    7.7145   -3.2631 H         1 <0>         0.0380
     60 H22         3.3395    7.2079   -4.2360 H         1 <0>         0.0484
     61 H23         3.5406    8.8134   -3.5374 H         1 <0>         0.0697
     62 H24         4.0335    4.0099   -2.5019 H         1 <0>         0.0843
     63 H25         6.2589   -0.1767    4.4911 H         1 <0>         0.0831
     64 H26        -0.6181    6.0842   -1.1357 H         1 <0>         0.0704
     65 H27        -0.4536    6.0709   -2.8800 H         1 <0>         0.0718
     66 H28         7.6494    5.4516   -0.0948 H         1 <0>         0.0606
     67 H29         8.8216    4.2418    0.4157 H         1 <0>         0.0458
     68 H30         8.0356    6.7709    1.9287 H         1 <0>         0.0375
     69 H31         9.1825    5.5824    2.5383 H         1 <0>         0.0392
     70 H32         6.2171    4.9575    1.8728 H         1 <0>         0.0606
     71 H33         7.3929    3.7874    2.4660 H         1 <0>         0.0579
     72 H34         9.5108    7.2416   -0.0285 H         1 <0>         0.0571
     73 H35        10.6706    6.0303    0.5375 H         1 <0>         0.0503
     74 H36         7.0421    2.3587    0.4881 H         1 <0>         0.0993
     75 H37         2.1998    8.2929   -0.4996 H         1 <0>         0.3700
     76 H38         0.8492    7.4324    0.1998 H         1 <0>         0.3660
     77 H39        11.2163    8.3531    1.3147 H         1 <0>         0.3465
     78 H40        10.4498    7.6340    2.7108 H         1 <0>         0.3446
     79 H41         6.8020    0.4535    1.6799 H         1 <0>         0.3148
     80 H42         6.1527    3.1949   -1.3636 H         1 <0>         0.3220
@<TRIPOS>BOND
     1    1    2 ar
     2    1    3 ar
     3    2    4 ar
     4    3    5 ar
     5    4    6 ar
     6    5    6 ar
     7    6   23 1
     8    7   22 1
     9    7   29 am
    10    7   35 2
    11    8    9 1
    12    8   28 1
    13    8   36 2
    14    9   33 am
    15    9   37 2
    16   10   20 1
    17   10   34 am
    18   10   38 2
    19   11   12 1
    20   11   13 1
    21   12   14 1
    22   13   15 1
    23   14   21 1
    24   15   21 1
    25   16   18 1
    26   16   20 1
    27   17   19 1
    28   17   22 1
    29   18   30 1
    30   19   30 1
    31   20   29 1
    32   21   33 1
    33   22   23 1
    34   22   31 1
    35   24   25 1
    36   24   26 1
    37   25   27 1
    38   26   28 1
    39   27   32 1
    40   28   34 1
    41   29   30 1
    42    1   39 1
    43    2   40 1
    44    3   41 1
    45    4   42 1
    46    5   43 1
    47   11   44 1
    48   11   45 1
    49   12   46 1
    50   12   47 1
    51   13   48 1
    52   13   49 1
    53   14   50 1
    54   14   51 1
    55   15   52 1
    56   15   53 1
    57   16   54 1
    58   16   55 1
    59   17   56 1
    60   17   57 1
    61   18   58 1
    62   18   59 1
    63   19   60 1
    64   19   61 1
    65   20   62 1
    66   21   63 1
    67   23   64 1
    68   23   65 1
    69   24   66 1
    70   24   67 1
    71   25   68 1
    72   25   69 1
    73   26   70 1
    74   26   71 1
    75   27   72 1
    76   27   73 1
    77   28   74 1
    78   31   75 1
    79   31   76 1
    80   32   77 1
    81   32   78 1
    82   33   79 1
    83   34   80 1
@<TRIPOS>MOLECULE
1a46_ligand_112
   80    83     0     0     0
SMALL
USER_CHARGES

mmff94s_NoEstat = 83.50
@<TRIPOS>ATOM
      1 C1         -3.7305   -5.9204  -11.3537 C.ar      1 <0>        -0.1300
      2 C2         -2.4262   -5.5183  -11.6410 C.ar      1 <0>        -0.1323
      3 C3         -4.6750   -4.9808  -10.9404 C.ar      1 <0>        -0.1309
      4 C4         -2.0662   -4.1766  -11.5149 C.ar      1 <0>        -0.1275
      5 C5         -4.3150   -3.6391  -10.8142 C.ar      1 <0>        -0.1272
      6 C6         -3.0129   -3.2458  -11.1023 C.ar      1 <0>        -0.0843
      7 C7         -1.7147   -0.0189   -9.4111 C.2       1 <0>         0.6709
      8 C8          2.7796    3.2097   -6.1637 C.2       1 <0>         0.4867
      9 C9          4.2189    2.8058   -6.2975 C.2       1 <0>         0.5883
     10 C10         0.2181    1.9581   -7.7739 C.2       1 <0>         0.6572
     11 C11         7.4572   -1.5160   -6.0730 C.3       1 <0>        -0.0802
     12 C12         7.5662   -0.2563   -5.2184 C.3       1 <0>        -0.0765
     13 C13         6.9001   -1.2090   -7.4602 C.3       1 <0>        -0.0774
     14 C14         6.2334    0.4858   -5.1360 C.3       1 <0>        -0.0953
     15 C15         5.5662   -0.4685   -7.3802 C.3       1 <0>        -0.0906
     16 C16        -1.7326    1.7367   -6.2145 C.3       1 <0>        -0.0871
     17 C17        -3.1871   -1.8587   -8.5042 C.3       1 <0>        -0.0716
     18 C18        -1.5889    0.2745   -5.7969 C.3       1 <0>         0.1333
     19 C19        -3.0480   -1.1203   -7.1617 C.3       1 <0>         0.1246
     20 C20        -1.2590    1.7411   -7.6524 C.3       1 <0>         0.0606
     21 C21         5.6832    0.8020   -6.5312 C.3       1 <0>         0.1012
     22 C22        -2.1125   -1.4947   -9.5555 C.3       1 <0>         0.1554
     23 C23        -2.6257   -1.8026  -10.9666 C.3       1 <0>        -0.0356
     24 C24         1.4445    5.5921   -8.9731 C.3       1 <0>        -0.0795
     25 C25         1.6370    7.0835   -9.2718 C.3       1 <0>        -0.1203
     26 C26         2.1570    5.1335   -7.6933 C.3       1 <0>        -0.0920
     27 C27         0.9502    7.5360  -10.5601 C.3       1 <0>         0.1502
     28 C28         2.0196    3.6328   -7.4097 C.3       1 <0>         0.0224
     29 N1         -1.5278    0.3875   -8.0990 N.am      1 <0>        -0.3553
     30 N2         -1.7250   -0.5121   -7.0349 N.3       1 <0>        -0.4320
     31 N3         -0.8818   -2.2667   -9.3297 N.3       1 <0>        -0.9031
     32 N4          1.1922    8.9569  -10.7874 N.3       1 <0>        -0.9068
     33 N5          4.3754    1.4444   -6.4155 N.am      1 <0>        -0.5526
     34 N6          0.6426    3.2153   -7.3763 N.am      1 <0>        -0.5576
     35 O1         -1.5651    0.7213  -10.3831 O.2       1 <0>        -0.6710
     36 O2          2.3266    3.2509   -5.0269 O.2       1 <0>        -0.4901
     37 O3          5.0647    3.6847   -6.2675 O.2       1 <0>        -0.5902
     38 O4          0.9290    1.0536   -8.1959 O.2       1 <0>        -0.5833
     39 H1         -4.0108   -6.9651  -11.4519 H         1 <0>         0.1320
     40 H2         -1.6909   -6.2500  -11.9629 H         1 <0>         0.1324
     41 H3         -5.6906   -5.2940  -10.7166 H         1 <0>         0.1328
     42 H4         -1.0476   -3.8726  -11.7408 H         1 <0>         0.1324
     43 H5         -5.0575   -2.9141  -10.4915 H         1 <0>         0.1434
     44 H6          8.4435   -1.9842   -6.1671 H         1 <0>         0.0405
     45 H7          6.8051   -2.2412   -5.5710 H         1 <0>         0.0421
     46 H8          7.9023   -0.5230   -4.2101 H         1 <0>         0.0362
     47 H9          8.3275    0.4091   -5.6437 H         1 <0>         0.0439
     48 H10         7.6221   -0.5997   -8.0178 H         1 <0>         0.0350
     49 H11         6.7703   -2.1422   -8.0198 H         1 <0>         0.0428
     50 H12         5.5110   -0.1235   -4.5770 H         1 <0>         0.0663
     51 H13         6.3634    1.4136   -4.5656 H         1 <0>         0.0466
     52 H14         5.2261   -0.2133   -8.3913 H         1 <0>         0.0493
     53 H15         4.8042   -1.1351   -6.9552 H         1 <0>         0.0520
     54 H16        -2.7915    2.0208   -6.1758 H         1 <0>         0.0915
     55 H17        -1.1685    2.4118   -5.5637 H         1 <0>         0.0601
     56 H18        -3.1756   -2.9428   -8.3269 H         1 <0>         0.0688
     57 H19        -4.1842   -1.6345   -8.9071 H         1 <0>         0.0630
     58 H20        -0.5812    0.1087   -5.3971 H         1 <0>         0.0807
     59 H21        -2.2993   -0.0031   -5.0104 H         1 <0>         0.0380
     60 H22        -3.8377   -0.3598   -7.0886 H         1 <0>         0.0484
     61 H23        -3.2188   -1.8335   -6.3463 H         1 <0>         0.0697
     62 H24        -1.7729    2.4744   -8.2803 H         1 <0>         0.0843
     63 H25         6.3372    1.5246   -7.0329 H         1 <0>         0.0831
     64 H26        -1.8489   -1.5475  -11.6898 H         1 <0>         0.0704
     65 H27        -3.4798   -1.1578  -11.1818 H         1 <0>         0.0718
     66 H28         0.3683    5.4079   -8.8774 H         1 <0>         0.0606
     67 H29         1.7918    5.0040   -9.8306 H         1 <0>         0.0458
     68 H30         1.2300    7.6523   -8.4256 H         1 <0>         0.0375
     69 H31         2.7093    7.3123   -9.3176 H         1 <0>         0.0392
     70 H32         1.7604    5.7005   -6.8419 H         1 <0>         0.0606
     71 H33         3.2243    5.3739   -7.7660 H         1 <0>         0.0579
     72 H34        -0.1287    7.3572  -10.4981 H         1 <0>         0.0571
     73 H35         1.3345    6.9786  -11.4193 H         1 <0>         0.0503
     74 H36         2.4714    3.0747   -8.2388 H         1 <0>         0.0993
     75 H37        -0.6260   -2.4640   -8.3900 H         1 <0>         0.3700
     76 H38        -0.2603   -2.3800  -10.0968 H         1 <0>         0.3660
     77 H39         0.7014    9.4044  -11.5317 H         1 <0>         0.3465
     78 H40         1.9755    9.3785  -10.3359 H         1 <0>         0.3446
     79 H41         3.5452    0.8594   -6.4225 H         1 <0>         0.3148
     80 H42        -0.0552    3.8781   -7.0434 H         1 <0>         0.3220
@<TRIPOS>BOND
     1    1    2 ar
     2    1    3 ar
     3    2    4 ar
     4    3    5 ar
     5    4    6 ar
     6    5    6 ar
     7    6   23 1
     8    7   22 1
     9    7   29 am
    10    7   35 2
    11    8    9 1
    12    8   28 1
    13    8   36 2
    14    9   33 am
    15    9   37 2
    16   10   20 1
    17   10   34 am
    18   10   38 2
    19   11   12 1
    20   11   13 1
    21   12   14 1
    22   13   15 1
    23   14   21 1
    24   15   21 1
    25   16   18 1
    26   16   20 1
    27   17   19 1
    28   17   22 1
    29   18   30 1
    30   19   30 1
    31   20   29 1
    32   21   33 1
    33   22   23 1
    34   22   31 1
    35   24   25 1
    36   24   26 1
    37   25   27 1
    38   26   28 1
    39   27   32 1
    40   28   34 1
    41   29   30 1
    42    1   39 1
    43    2   40 1
    44    3   41 1
    45    4   42 1
    46    5   43 1
    47   11   44 1
    48   11   45 1
    49   12   46 1
    50   12   47 1
    51   13   48 1
    52   13   49 1
    53   14   50 1
    54   14   51 1
    55   15   52 1
    56   15   53 1
    57   16   54 1
    58   16   55 1
    59   17   56 1
    60   17   57 1
    61   18   58 1
    62   18   59 1
    63   19   60 1
    64   19   61 1
    65   20   62 1
    66   21   63 1
    67   23   64 1
    68   23   65 1
    69   24   66 1
    70   24   67 1
    71   25   68 1
    72   25   69 1
    73   26   70 1
    74   26   71 1
    75   27   72 1
    76   27   73 1
    77   28   74 1
    78   31   75 1
    79   31   76 1
    80   32   77 1
    81   32   78 1
    82   33   79 1
    83   34   80 1
@<TRIPOS>MOLECULE
1a46_ligand_113
   80    83     0     0     0
SMALL
USER_CHARGES

mmff94s_NoEstat = 83.53
@<TRIPOS>ATOM
      1 C1         11.0121    9.2104   -7.9325 C.ar      1 <0>        -0.1300
      2 C2         11.5385    8.8832   -6.6829 C.ar      1 <0>        -0.1323
      3 C3          9.6345    9.1559   -8.1449 C.ar      1 <0>        -0.1309
      4 C4         10.6874    8.5015   -5.6458 C.ar      1 <0>        -0.1275
      5 C5          8.7834    8.7742   -7.1078 C.ar      1 <0>        -0.1272
      6 C6          9.3154    8.4495   -5.8650 C.ar      1 <0>        -0.0843
      7 C7          7.2411    6.0968   -3.6024 C.2       1 <0>         0.6709
      8 C8          5.2358    2.3798    1.5634 C.2       1 <0>         0.4867
      9 C9          5.6522    1.1980    2.3894 C.2       1 <0>         0.5883
     10 C10         6.5256    3.6321   -1.6689 C.2       1 <0>         0.6572
     11 C11         2.8569    0.0394    6.2934 C.3       1 <0>        -0.0802
     12 C12         4.1514    0.8426    6.1981 C.3       1 <0>        -0.0765
     13 C13         2.3812   -0.4389    4.9242 C.3       1 <0>        -0.0774
     14 C14         5.2417    0.0671    5.4575 C.3       1 <0>        -0.0953
     15 C15         3.4756   -1.2117    4.1867 C.3       1 <0>        -0.0906
     16 C16         5.2113    3.0694   -3.7284 C.3       1 <0>        -0.0871
     17 C17         7.6012    6.0599   -6.1012 C.3       1 <0>        -0.0716
     18 C18         6.3446    2.7580   -4.7039 C.3       1 <0>         0.1333
     19 C19         6.8355    4.7264   -6.0536 C.3       1 <0>         0.1246
     20 C20         5.7868    4.1659   -2.8575 C.3       1 <0>         0.0606
     21 C21         4.7887   -0.4252    4.0765 C.3       1 <0>         0.1012
     22 C22         8.1773    6.5224   -4.7422 C.3       1 <0>         0.1554
     23 C23         8.4000    8.0389   -4.7494 C.3       1 <0>        -0.0356
     24 C24         6.0158    5.3379    2.0114 C.3       1 <0>        -0.0795
     25 C25         6.7209    6.4716    2.7653 C.3       1 <0>        -0.1203
     26 C26         6.9719    4.2276    1.5544 C.3       1 <0>        -0.0920
     27 C27         5.7742    7.5909    3.1979 C.3       1 <0>         0.1502
     28 C28         6.2906    3.1130    0.7514 C.3       1 <0>         0.0224
     29 N1          6.7674    4.7991   -3.7183 N.am      1 <0>        -0.3553
     30 N2          7.1280    4.0001   -4.8193 N.3       1 <0>        -0.4320
     31 N3          9.4643    5.8648   -4.4722 N.3       1 <0>        -0.9031
     32 N4          6.5168    8.6391    3.8900 N.3       1 <0>        -0.9068
     33 N5          4.6259    0.7077    3.1628 N.am      1 <0>        -0.5526
     34 N6          5.7762    3.5917   -0.5046 N.am      1 <0>        -0.5576
     35 O1          6.9567    6.8465   -2.6685 O.2       1 <0>        -0.6710
     36 O2          4.0675    2.7325    1.6631 O.2       1 <0>        -0.4901
     37 O3          6.8111    0.8244    2.3100 O.2       1 <0>        -0.5902
     38 O4          7.6924    3.2783   -1.7917 O.2       1 <0>        -0.5833
     39 H1         11.6747    9.5075   -8.7400 H         1 <0>         0.1320
     40 H2         12.6111    8.9257   -6.5176 H         1 <0>         0.1324
     41 H3          9.2248    9.4105   -9.1180 H         1 <0>         0.1328
     42 H4         11.1066    8.2484   -4.6756 H         1 <0>         0.1324
     43 H5          7.7115    8.7346   -7.2826 H         1 <0>         0.1434
     44 H6          3.0162   -0.8286    6.9451 H         1 <0>         0.0405
     45 H7          2.0772    0.6503    6.7622 H         1 <0>         0.0421
     46 H8          3.9561    1.7911    5.6834 H         1 <0>         0.0362
     47 H9          4.5014    1.0954    7.2055 H         1 <0>         0.0439
     48 H10         1.4988   -1.0776    5.0444 H         1 <0>         0.0350
     49 H11         2.0681    0.4241    4.3241 H         1 <0>         0.0428
     50 H12         6.1309    0.7014    5.3588 H         1 <0>         0.0663
     51 H13         5.5348   -0.7986    6.0650 H         1 <0>         0.0466
     52 H14         3.6672   -2.1509    4.7211 H         1 <0>         0.0493
     53 H15         3.1137   -1.4830    3.1876 H         1 <0>         0.0520
     54 H16         4.3507    3.4578   -4.2870 H         1 <0>         0.0915
     55 H17         4.8908    2.1856   -3.1683 H         1 <0>         0.0601
     56 H18         8.4120    5.9885   -6.8390 H         1 <0>         0.0688
     57 H19         6.9149    6.8257   -6.4876 H         1 <0>         0.0630
     58 H20         6.9926    1.9855   -4.2725 H         1 <0>         0.0807
     59 H21         5.9735    2.3729   -5.6602 H         1 <0>         0.0380
     60 H22         5.7592    4.9288   -6.1435 H         1 <0>         0.0484
     61 H23         7.1185    4.1245   -6.9255 H         1 <0>         0.0697
     62 H24         5.0406    4.8864   -2.5107 H         1 <0>         0.0843
     63 H25         5.5651   -1.0584    3.6346 H         1 <0>         0.0831
     64 H26         8.8151    8.3408   -3.7861 H         1 <0>         0.0704
     65 H27         7.4343    8.5386   -4.8464 H         1 <0>         0.0718
     66 H28         5.2579    4.9142    2.6804 H         1 <0>         0.0606
     67 H29         5.4809    5.7546    1.1500 H         1 <0>         0.0458
     68 H30         7.2000    6.0392    3.6534 H         1 <0>         0.0375
     69 H31         7.5258    6.8807    2.1417 H         1 <0>         0.0392
     70 H32         7.4599    3.7926    2.4354 H         1 <0>         0.0606
     71 H33         7.7645    4.6634    0.9347 H         1 <0>         0.0579
     72 H34         4.9986    7.1962    3.8630 H         1 <0>         0.0571
     73 H35         5.2784    8.0349    2.3297 H         1 <0>         0.0503
     74 H36         7.0421    2.3587    0.4881 H         1 <0>         0.0993
     75 H37         9.5764    4.9261   -4.7778 H         1 <0>         0.3700
     76 H38        10.0811    6.3037   -3.8286 H         1 <0>         0.3660
     77 H39         5.9996    9.3711    4.3277 H         1 <0>         0.3465
     78 H40         7.4997    8.7018    3.7315 H         1 <0>         0.3446
     79 H41         3.7145    1.1511    3.0972 H         1 <0>         0.3148
     80 H42         4.8120    3.9176   -0.5391 H         1 <0>         0.3220
@<TRIPOS>BOND
     1    1    2 ar
     2    1    3 ar
     3    2    4 ar
     4    3    5 ar
     5    4    6 ar
     6    5    6 ar
     7    6   23 1
     8    7   22 1
     9    7   29 am
    10    7   35 2
    11    8    9 1
    12    8   28 1
    13    8   36 2
    14    9   33 am
    15    9   37 2
    16   10   20 1
    17   10   34 am
    18   10   38 2
    19   11   12 1
    20   11   13 1
    21   12   14 1
    22   13   15 1
    23   14   21 1
    24   15   21 1
    25   16   18 1
    26   16   20 1
    27   17   19 1
    28   17   22 1
    29   18   30 1
    30   19   30 1
    31   20   29 1
    32   21   33 1
    33   22   23 1
    34   22   31 1
    35   24   25 1
    36   24   26 1
    37   25   27 1
    38   26   28 1
    39   27   32 1
    40   28   34 1
    41   29   30 1
    42    1   39 1
    43    2   40 1
    44    3   41 1
    45    4   42 1
    46    5   43 1
    47   11   44 1
    48   11   45 1
    49   12   46 1
    50   12   47 1
    51   13   48 1
    52   13   49 1
    53   14   50 1
    54   14   51 1
    55   15   52 1
    56   15   53 1
    57   16   54 1
    58   16   55 1
    59   17   56 1
    60   17   57 1
    61   18   58 1
    62   18   59 1
    63   19   60 1
    64   19   61 1
    65   20   62 1
    66   21   63 1
    67   23   64 1
    68   23   65 1
    69   24   66 1
    70   24   67 1
    71   25   68 1
    72   25   69 1
    73   26   70 1
    74   26   71 1
    75   27   72 1
    76   27   73 1
    77   28   74 1
    78   31   75 1
    79   31   76 1
    80   32   77 1
    81   32   78 1
    82   33   79 1
    83   34   80 1
@<TRIPOS>MOLECULE
1a46_ligand_114
   80    83     0     0     0
SMALL
USER_CHARGES

mmff94s_NoEstat = 83.57
@<TRIPOS>ATOM
      1 C1         11.1945    5.3647   -9.7731 C.ar      1 <0>        -0.1300
      2 C2         11.8337    5.1154   -8.5586 C.ar      1 <0>        -0.1323
      3 C3          9.8873    5.8513   -9.7863 C.ar      1 <0>        -0.1309
      4 C4         11.1656    5.3526   -7.3573 C.ar      1 <0>        -0.1275
      5 C5          9.2192    6.0884   -8.5850 C.ar      1 <0>        -0.1272
      6 C6          9.8628    5.8375   -7.3783 C.ar      1 <0>        -0.0843
      7 C7          7.6425    5.1042   -4.2977 C.2       1 <0>         0.6709
      8 C8          5.2358    2.3798    1.5634 C.2       1 <0>         0.4867
      9 C9          5.6522    1.1980    2.3894 C.2       1 <0>         0.5883
     10 C10         6.5256    3.6321   -1.6689 C.2       1 <0>         0.6572
     11 C11         2.8569    0.0394    6.2934 C.3       1 <0>        -0.0802
     12 C12         4.1514    0.8426    6.1981 C.3       1 <0>        -0.0765
     13 C13         2.3812   -0.4389    4.9242 C.3       1 <0>        -0.0774
     14 C14         5.2417    0.0671    5.4575 C.3       1 <0>        -0.0953
     15 C15         3.4756   -1.2117    4.1867 C.3       1 <0>        -0.0906
     16 C16         4.6595    3.2577   -3.3009 C.3       1 <0>        -0.0871
     17 C17         7.3760    4.3986   -6.7074 C.3       1 <0>        -0.0716
     18 C18         5.3367    2.3027   -4.2819 C.3       1 <0>         0.1333
     19 C19         6.2012    3.5529   -6.1864 C.3       1 <0>         0.1246
     20 C20         5.7868    4.1659   -2.8575 C.3       1 <0>         0.0606
     21 C21         4.7887   -0.4252    4.0765 C.3       1 <0>         0.1012
     22 C22         8.3797    4.8486   -5.6198 C.3       1 <0>         0.1554
     23 C23         9.1441    6.0926   -6.0861 C.3       1 <0>        -0.0356
     24 C24         6.0158    5.3379    2.0114 C.3       1 <0>        -0.0795
     25 C25         6.7209    6.4716    2.7653 C.3       1 <0>        -0.1203
     26 C26         6.9719    4.2276    1.5544 C.3       1 <0>        -0.0920
     27 C27         5.7742    7.5909    3.1979 C.3       1 <0>         0.1502
     28 C28         6.2906    3.1130    0.7514 C.3       1 <0>         0.0224
     29 N1          6.7058    4.1331   -3.9791 N.am      1 <0>        -0.3553
     30 N2          6.4777    3.0462   -4.8435 N.3       1 <0>        -0.4320
     31 N3          9.3531    3.7833   -5.3380 N.3       1 <0>        -0.9031
     32 N4          6.5168    8.6391    3.8900 N.3       1 <0>        -0.9068
     33 N5          4.6259    0.7077    3.1628 N.am      1 <0>        -0.5526
     34 N6          5.7762    3.5917   -0.5046 N.am      1 <0>        -0.5576
     35 O1          7.8821    6.0807   -3.5877 O.2       1 <0>        -0.6710
     36 O2          4.0675    2.7325    1.6631 O.2       1 <0>        -0.4901
     37 O3          6.8111    0.8244    2.3100 O.2       1 <0>        -0.5902
     38 O4          7.6924    3.2783   -1.7917 O.2       1 <0>        -0.5833
     39 H1         11.7147    5.1800  -10.7084 H         1 <0>         0.1320
     40 H2         12.8515    4.7366   -8.5485 H         1 <0>         0.1324
     41 H3          9.3897    6.0452  -10.7320 H         1 <0>         0.1328
     42 H4         11.6716    5.1554   -6.4159 H         1 <0>         0.1324
     43 H5          8.2009    6.4675   -8.6050 H         1 <0>         0.1434
     44 H6          3.0162   -0.8286    6.9451 H         1 <0>         0.0405
     45 H7          2.0772    0.6503    6.7622 H         1 <0>         0.0421
     46 H8          3.9561    1.7911    5.6834 H         1 <0>         0.0362
     47 H9          4.5014    1.0954    7.2055 H         1 <0>         0.0439
     48 H10         1.4988   -1.0776    5.0444 H         1 <0>         0.0350
     49 H11         2.0681    0.4241    4.3241 H         1 <0>         0.0428
     50 H12         6.1309    0.7014    5.3588 H         1 <0>         0.0663
     51 H13         5.5348   -0.7986    6.0650 H         1 <0>         0.0466
     52 H14         3.6672   -2.1509    4.7211 H         1 <0>         0.0493
     53 H15         3.1137   -1.4830    3.1876 H         1 <0>         0.0520
     54 H16         3.9023    3.8458   -3.8340 H         1 <0>         0.0915
     55 H17         4.1709    2.7289   -2.4768 H         1 <0>         0.0601
     56 H18         7.9078    3.8408   -7.4902 H         1 <0>         0.0688
     57 H19         6.9559    5.2827   -7.2061 H         1 <0>         0.0630
     58 H20         5.7303    1.4383   -3.7336 H         1 <0>         0.0807
     59 H21         4.6390    1.9190   -5.0344 H         1 <0>         0.0380
     60 H22         5.2889    4.1652   -6.1941 H         1 <0>         0.0484
     61 H23         6.0298    2.7205   -6.8794 H         1 <0>         0.0697
     62 H24         5.4651    5.1881   -2.6391 H         1 <0>         0.0843
     63 H25         5.5651   -1.0584    3.6346 H         1 <0>         0.0831
     64 H26         9.8520    6.3858   -5.3087 H         1 <0>         0.0704
     65 H27         8.4405    6.9195   -6.1990 H         1 <0>         0.0718
     66 H28         5.2579    4.9142    2.6804 H         1 <0>         0.0606
     67 H29         5.4809    5.7546    1.1500 H         1 <0>         0.0458
     68 H30         7.2000    6.0392    3.6534 H         1 <0>         0.0375
     69 H31         7.5258    6.8807    2.1417 H         1 <0>         0.0392
     70 H32         7.4599    3.7926    2.4354 H         1 <0>         0.0606
     71 H33         7.7645    4.6634    0.9347 H         1 <0>         0.0579
     72 H34         4.9986    7.1962    3.8630 H         1 <0>         0.0571
     73 H35         5.2784    8.0349    2.3297 H         1 <0>         0.0503
     74 H36         7.0421    2.3587    0.4881 H         1 <0>         0.0993
     75 H37         9.0331    2.8434   -5.3754 H         1 <0>         0.3700
     76 H38        10.2196    4.0460   -4.9287 H         1 <0>         0.3660
     77 H39         5.9996    9.3711    4.3277 H         1 <0>         0.3465
     78 H40         7.4997    8.7018    3.7315 H         1 <0>         0.3446
     79 H41         3.7145    1.1511    3.0972 H         1 <0>         0.3148
     80 H42         4.8120    3.9176   -0.5391 H         1 <0>         0.3220
@<TRIPOS>BOND
     1    1    2 ar
     2    1    3 ar
     3    2    4 ar
     4    3    5 ar
     5    4    6 ar
     6    5    6 ar
     7    6   23 1
     8    7   22 1
     9    7   29 am
    10    7   35 2
    11    8    9 1
    12    8   28 1
    13    8   36 2
    14    9   33 am
    15    9   37 2
    16   10   20 1
    17   10   34 am
    18   10   38 2
    19   11   12 1
    20   11   13 1
    21   12   14 1
    22   13   15 1
    23   14   21 1
    24   15   21 1
    25   16   18 1
    26   16   20 1
    27   17   19 1
    28   17   22 1
    29   18   30 1
    30   19   30 1
    31   20   29 1
    32   21   33 1
    33   22   23 1
    34   22   31 1
    35   24   25 1
    36   24   26 1
    37   25   27 1
    38   26   28 1
    39   27   32 1
    40   28   34 1
    41   29   30 1
    42    1   39 1
    43    2   40 1
    44    3   41 1
    45    4   42 1
    46    5   43 1
    47   11   44 1
    48   11   45 1
    49   12   46 1
    50   12   47 1
    51   13   48 1
    52   13   49 1
    53   14   50 1
    54   14   51 1
    55   15   52 1
    56   15   53 1
    57   16   54 1
    58   16   55 1
    59   17   56 1
    60   17   57 1
    61   18   58 1
    62   18   59 1
    63   19   60 1
    64   19   61 1
    65   20   62 1
    66   21   63 1
    67   23   64 1
    68   23   65 1
    69   24   66 1
    70   24   67 1
    71   25   68 1
    72   25   69 1
    73   26   70 1
    74   26   71 1
    75   27   72 1
    76   27   73 1
    77   28   74 1
    78   31   75 1
    79   31   76 1
    80   32   77 1
    81   32   78 1
    82   33   79 1
    83   34   80 1
@<TRIPOS>MOLECULE
1a46_ligand_115
   80    83     0     0     0
SMALL
USER_CHARGES

mmff94s_NoEstat = 83.58
@<TRIPOS>ATOM
      1 C1          9.3427    1.2226  -10.2936 C.ar      1 <0>        -0.1300
      2 C2          9.9666    0.8172   -9.1138 C.ar      1 <0>        -0.1323
      3 C3          8.4336    2.2805  -10.2739 C.ar      1 <0>        -0.1309
      4 C4          9.6814    1.4695   -7.9143 C.ar      1 <0>        -0.1275
      5 C5          8.1485    2.9328   -9.0744 C.ar      1 <0>        -0.1272
      6 C6          8.7742    2.5231   -7.9024 C.ar      1 <0>        -0.0843
      7 C7          6.9710    3.2795   -4.5657 C.2       1 <0>         0.6709
      8 C8          5.2358    2.3798    1.5634 C.2       1 <0>         0.4867
      9 C9          3.8230    2.3549    1.0577 C.2       1 <0>         0.5883
     10 C10         5.7098    2.8119   -1.6475 C.2       1 <0>         0.6572
     11 C11         1.4085   -1.9541    1.0568 C.3       1 <0>        -0.0802
     12 C12         2.4102   -1.7120   -0.0693 C.3       1 <0>        -0.0765
     13 C13         1.3521   -0.7805    2.0311 C.3       1 <0>        -0.0774
     14 C14         2.1398   -0.3897   -0.7884 C.3       1 <0>        -0.0953
     15 C15         1.0838    0.5396    1.3070 C.3       1 <0>        -0.0906
     16 C16         3.6624    3.2324   -3.0320 C.3       1 <0>        -0.0871
     17 C17         6.0388    2.5547   -6.7975 C.3       1 <0>        -0.0716
     18 C18         3.6514    1.9752   -3.8994 C.3       1 <0>         0.1333
     19 C19         4.6996    2.4463   -6.0480 C.3       1 <0>         0.1246
     20 C20         5.1372    3.5153   -2.8394 C.3       1 <0>         0.0606
     21 C21         2.0784    0.8075    0.1696 C.3       1 <0>         0.1012
     22 C22         7.2891    2.5653   -5.8869 C.3       1 <0>         0.1554
     23 C23         8.4675    3.2247   -6.6121 C.3       1 <0>        -0.0356
     24 C24         7.6485    3.7409    2.8432 C.3       1 <0>        -0.0795
     25 C25         8.2774    4.8743    3.6620 C.3       1 <0>        -0.1203
     26 C26         6.9719    4.2276    1.5544 C.3       1 <0>        -0.0920
     27 C27         8.9284    4.3945    4.9589 C.3       1 <0>         0.1502
     28 C28         6.2906    3.1130    0.7514 C.3       1 <0>         0.0224
     29 N1          5.7488    2.9259   -4.0152 N.am      1 <0>        -0.3553
     30 N2          4.9069    2.0073   -4.6693 N.3       1 <0>        -0.4320
     31 N3          7.6768    1.1953   -5.5201 N.3       1 <0>        -0.9031
     32 N4          9.4866    5.5266    5.6910 N.3       1 <0>        -0.9068
     33 N5          3.4082    1.0891    0.7148 N.am      1 <0>        -0.5526
     34 N6          5.7762    3.5917   -0.5046 N.am      1 <0>        -0.5576
     35 O1          7.7474    4.0812   -4.0464 O.2       1 <0>        -0.6710
     36 O2          5.4669    1.7271    2.5732 O.2       1 <0>        -0.4901
     37 O3          3.2225    3.4147    0.9857 O.2       1 <0>        -0.5902
     38 O4          6.0670    1.6440   -1.7490 O.2       1 <0>        -0.5833
     39 H1          9.5646    0.7147  -11.2275 H         1 <0>         0.1320
     40 H2         10.6743   -0.0064   -9.1292 H         1 <0>         0.1324
     41 H3          7.9478    2.5960  -11.1926 H         1 <0>         0.1328
     42 H4         10.1723    1.1467   -7.0000 H         1 <0>         0.1324
     43 H5          7.4388    3.7559   -9.0687 H         1 <0>         0.1434
     44 H6          0.4123   -2.1163    0.6268 H         1 <0>         0.0405
     45 H7          1.6748   -2.8696    1.5969 H         1 <0>         0.0421
     46 H8          3.4275   -1.7101    0.3405 H         1 <0>         0.0362
     47 H9          2.3604   -2.5373   -0.7887 H         1 <0>         0.0439
     48 H10         0.5662   -0.9575    2.7741 H         1 <0>         0.0350
     49 H11         2.2989   -0.7161    2.5809 H         1 <0>         0.0428
     50 H12         2.9155   -0.2268   -1.5465 H         1 <0>         0.0663
     51 H13         1.1844   -0.4667   -1.3229 H         1 <0>         0.0466
     52 H14         0.0677    0.5160    0.8929 H         1 <0>         0.0493
     53 H15         1.1117    1.3607    2.0335 H         1 <0>         0.0520
     54 H16         3.1996    4.0578   -3.5869 H         1 <0>         0.0915
     55 H17         3.1150    3.0948   -2.0945 H         1 <0>         0.0601
     56 H18         6.1186    1.7328   -7.5220 H         1 <0>         0.0688
     57 H19         6.0134    3.4760   -7.3953 H         1 <0>         0.0630
     58 H20         3.6705    1.0888   -3.2538 H         1 <0>         0.0807
     59 H21         2.7495    1.9066   -4.5175 H         1 <0>         0.0380
     60 H22         4.1937    3.4213   -6.0771 H         1 <0>         0.0484
     61 H23         4.0529    1.7380   -6.5798 H         1 <0>         0.0697
     62 H24         5.3721    4.5807   -2.7630 H         1 <0>         0.0843
     63 H25         1.7819    1.7076   -0.3790 H         1 <0>         0.0831
     64 H26         9.3395    3.2124   -5.9558 H         1 <0>         0.0704
     65 H27         8.2279    4.2735   -6.7972 H         1 <0>         0.0718
     66 H28         8.4445    3.0306    2.5915 H         1 <0>         0.0606
     67 H29         6.9275    3.2007    3.4679 H         1 <0>         0.0458
     68 H30         9.0354    5.3625    3.0356 H         1 <0>         0.0375
     69 H31         7.5157    5.6329    3.8824 H         1 <0>         0.0392
     70 H32         7.7210    4.7221    0.9235 H         1 <0>         0.0606
     71 H33         6.2174    4.9831    1.8035 H         1 <0>         0.0579
     72 H34         9.7251    3.6753    4.7403 H         1 <0>         0.0571
     73 H35         8.1937    3.8977    5.5994 H         1 <0>         0.0503
     74 H36         7.0421    2.3587    0.4881 H         1 <0>         0.0993
     75 H37         6.9507    0.5323   -5.3773 H         1 <0>         0.3700
     76 H38         8.6161    1.0420   -5.2343 H         1 <0>         0.3660
     77 H39        10.0430    5.3371    6.4969 H         1 <0>         0.3465
     78 H40         9.1331    6.4373    5.4892 H         1 <0>         0.3446
     79 H41         4.0528    0.3153    0.8455 H         1 <0>         0.3148
     80 H42         5.4441    4.5531   -0.5557 H         1 <0>         0.3220
@<TRIPOS>BOND
     1    1    2 ar
     2    1    3 ar
     3    2    4 ar
     4    3    5 ar
     5    4    6 ar
     6    5    6 ar
     7    6   23 1
     8    7   22 1
     9    7   29 am
    10    7   35 2
    11    8    9 1
    12    8   28 1
    13    8   36 2
    14    9   33 am
    15    9   37 2
    16   10   20 1
    17   10   34 am
    18   10   38 2
    19   11   12 1
    20   11   13 1
    21   12   14 1
    22   13   15 1
    23   14   21 1
    24   15   21 1
    25   16   18 1
    26   16   20 1
    27   17   19 1
    28   17   22 1
    29   18   30 1
    30   19   30 1
    31   20   29 1
    32   21   33 1
    33   22   23 1
    34   22   31 1
    35   24   25 1
    36   24   26 1
    37   25   27 1
    38   26   28 1
    39   27   32 1
    40   28   34 1
    41   29   30 1
    42    1   39 1
    43    2   40 1
    44    3   41 1
    45    4   42 1
    46    5   43 1
    47   11   44 1
    48   11   45 1
    49   12   46 1
    50   12   47 1
    51   13   48 1
    52   13   49 1
    53   14   50 1
    54   14   51 1
    55   15   52 1
    56   15   53 1
    57   16   54 1
    58   16   55 1
    59   17   56 1
    60   17   57 1
    61   18   58 1
    62   18   59 1
    63   19   60 1
    64   19   61 1
    65   20   62 1
    66   21   63 1
    67   23   64 1
    68   23   65 1
    69   24   66 1
    70   24   67 1
    71   25   68 1
    72   25   69 1
    73   26   70 1
    74   26   71 1
    75   27   72 1
    76   27   73 1
    77   28   74 1
    78   31   75 1
    79   31   76 1
    80   32   77 1
    81   32   78 1
    82   33   79 1
    83   34   80 1
@<TRIPOS>MOLECULE
1a46_ligand_116
   80    83     0     0     0
SMALL
USER_CHARGES

mmff94s_NoEstat = 83.59
@<TRIPOS>ATOM
      1 C1          9.3778    1.4071  -10.5376 C.ar      1 <0>        -0.1300
      2 C2         10.0902    1.0682   -9.3873 C.ar      1 <0>        -0.1323
      3 C3          8.4252    2.4251  -10.4935 C.ar      1 <0>        -0.1309
      4 C4          9.8499    1.7472   -8.1928 C.ar      1 <0>        -0.1275
      5 C5          8.1849    3.1040   -9.2989 C.ar      1 <0>        -0.1272
      6 C6          8.8988    2.7607   -8.1564 C.ar      1 <0>        -0.0843
      7 C7          7.2708    3.5496   -4.7381 C.2       1 <0>         0.6709
      8 C8          5.2358    2.3798    1.5634 C.2       1 <0>         0.4867
      9 C9          5.3950    2.3039    3.0538 C.2       1 <0>         0.5883
     10 C10         6.2126    3.1256   -1.7338 C.2       1 <0>         0.6572
     11 C11         9.8151    1.0691    4.8799 C.3       1 <0>        -0.0802
     12 C12         8.9381   -0.0596    4.3444 C.3       1 <0>        -0.0765
     13 C13         9.1469    2.4326    4.7241 C.3       1 <0>        -0.0774
     14 C14         7.5441   -0.0356    4.9728 C.3       1 <0>        -0.0953
     15 C15         7.7525    2.4508    5.3519 C.3       1 <0>        -0.0906
     16 C16         4.0677    3.4116   -2.9998 C.3       1 <0>        -0.0871
     17 C17         6.2374    2.7118   -6.8841 C.3       1 <0>        -0.0716
     18 C18         4.0600    2.1270   -3.8260 C.3       1 <0>         0.1333
     19 C19         4.9528    2.5709   -6.0494 C.3       1 <0>         0.1246
     20 C20         5.5372    3.7637   -2.9085 C.3       1 <0>         0.0606
     21 C21         6.8497    1.3253    4.8295 C.3       1 <0>         0.1012
     22 C22         7.5393    2.8062   -6.0542 C.3       1 <0>         0.1554
     23 C23         8.6404    3.4910   -6.8715 C.3       1 <0>        -0.0356
     24 C24         8.0800    4.9598    0.7851 C.3       1 <0>        -0.0795
     25 C25         8.7880    6.0338    1.6192 C.3       1 <0>        -0.1203
     26 C26         6.9719    4.2276    1.5544 C.3       1 <0>        -0.0920
     27 C27         9.9095    6.7454    0.8629 C.3       1 <0>         0.1502
     28 C28         6.2906    3.1130    0.7514 C.3       1 <0>         0.0224
     29 N1          6.1017    3.1624   -4.1017 N.am      1 <0>        -0.3553
     30 N2          5.2634    2.1873   -4.6736 N.3       1 <0>        -0.4320
     31 N3          8.0097    1.4670   -5.6708 N.3       1 <0>        -0.9031
     32 N4         10.5470    7.7366    1.7233 N.3       1 <0>        -0.9068
     33 N5          6.4949    1.5685    3.4295 N.am      1 <0>        -0.5526
     34 N6          5.7762    3.5917   -0.5046 N.am      1 <0>        -0.5576
     35 O1          8.0408    4.4006   -4.2931 O.2       1 <0>        -0.6710
     36 O2          4.2060    1.9080    1.0985 O.2       1 <0>        -0.4901
     37 O3          4.5583    2.8586    3.7473 O.2       1 <0>        -0.5902
     38 O4          7.0689    2.2691   -1.9210 O.2       1 <0>        -0.5833
     39 H1          9.5648    0.8784  -11.4677 H         1 <0>         0.1320
     40 H2         10.8319    0.2756   -9.4218 H         1 <0>         0.1324
     41 H3          7.8704    2.6887  -11.3892 H         1 <0>         0.1328
     42 H4         10.4098    1.4763   -7.3016 H         1 <0>         0.1324
     43 H5          7.4407    3.8957   -9.2740 H         1 <0>         0.1434
     44 H6         10.0291    0.8896    5.9408 H         1 <0>         0.0405
     45 H7         10.7780    1.0682    4.3566 H         1 <0>         0.0421
     46 H8          8.8552    0.0275    3.2543 H         1 <0>         0.0362
     47 H9          9.4160   -1.0245    4.5493 H         1 <0>         0.0439
     48 H10         9.7701    3.2027    5.1927 H         1 <0>         0.0350
     49 H11         9.0775    2.6860    3.6593 H         1 <0>         0.0428
     50 H12         6.9302   -0.8221    4.5174 H         1 <0>         0.0663
     51 H13         7.6325   -0.2791    6.0392 H         1 <0>         0.0466
     52 H14         7.8529    2.3503    6.4402 H         1 <0>         0.0493
     53 H15         7.2863    3.4257    5.1647 H         1 <0>         0.0520
     54 H16         3.5352    4.1976   -3.5496 H         1 <0>         0.0915
     55 H17         3.5853    3.2820   -2.0262 H         1 <0>         0.0601
     56 H18         6.3096    1.8704   -7.5867 H         1 <0>         0.0688
     57 H19         6.1343    3.6107   -7.5070 H         1 <0>         0.0630
     58 H20         4.1583    1.2642   -3.1562 H         1 <0>         0.0807
     59 H21         3.1259    1.9993   -4.3842 H         1 <0>         0.0380
     60 H22         4.4028    3.5219   -6.0765 H         1 <0>         0.0484
     61 H23         4.3072    1.8183   -6.5178 H         1 <0>         0.0697
     62 H24         5.7284    4.8402   -2.8795 H         1 <0>         0.0843
     63 H25         5.9045    1.3202    5.3824 H         1 <0>         0.0831
     64 H26         9.5506    3.5379   -6.2709 H         1 <0>         0.0704
     65 H27         8.3431    4.5219   -7.0731 H         1 <0>         0.0718
     66 H28         7.6494    5.4516   -0.0948 H         1 <0>         0.0606
     67 H29         8.8216    4.2418    0.4157 H         1 <0>         0.0458
     68 H30         8.0356    6.7709    1.9287 H         1 <0>         0.0375
     69 H31         9.1825    5.5824    2.5383 H         1 <0>         0.0392
     70 H32         6.2171    4.9575    1.8728 H         1 <0>         0.0606
     71 H33         7.3929    3.7874    2.4660 H         1 <0>         0.0579
     72 H34         9.5108    7.2416   -0.0285 H         1 <0>         0.0571
     73 H35        10.6706    6.0303    0.5375 H         1 <0>         0.0503
     74 H36         7.0421    2.3587    0.4881 H         1 <0>         0.0993
     75 H37         7.3242    0.7786   -5.4626 H         1 <0>         0.3700
     76 H38         8.9706    1.3637   -5.4396 H         1 <0>         0.3660
     77 H39        11.2163    8.3531    1.3147 H         1 <0>         0.3465
     78 H40        10.4498    7.6340    2.7108 H         1 <0>         0.3446
     79 H41         7.0876    1.1766    2.7037 H         1 <0>         0.3148
     80 H42         5.0545    4.3100   -0.4888 H         1 <0>         0.3220
@<TRIPOS>BOND
     1    1    2 ar
     2    1    3 ar
     3    2    4 ar
     4    3    5 ar
     5    4    6 ar
     6    5    6 ar
     7    6   23 1
     8    7   22 1
     9    7   29 am
    10    7   35 2
    11    8    9 1
    12    8   28 1
    13    8   36 2
    14    9   33 am
    15    9   37 2
    16   10   20 1
    17   10   34 am
    18   10   38 2
    19   11   12 1
    20   11   13 1
    21   12   14 1
    22   13   15 1
    23   14   21 1
    24   15   21 1
    25   16   18 1
    26   16   20 1
    27   17   19 1
    28   17   22 1
    29   18   30 1
    30   19   30 1
    31   20   29 1
    32   21   33 1
    33   22   23 1
    34   22   31 1
    35   24   25 1
    36   24   26 1
    37   25   27 1
    38   26   28 1
    39   27   32 1
    40   28   34 1
    41   29   30 1
    42    1   39 1
    43    2   40 1
    44    3   41 1
    45    4   42 1
    46    5   43 1
    47   11   44 1
    48   11   45 1
    49   12   46 1
    50   12   47 1
    51   13   48 1
    52   13   49 1
    53   14   50 1
    54   14   51 1
    55   15   52 1
    56   15   53 1
    57   16   54 1
    58   16   55 1
    59   17   56 1
    60   17   57 1
    61   18   58 1
    62   18   59 1
    63   19   60 1
    64   19   61 1
    65   20   62 1
    66   21   63 1
    67   23   64 1
    68   23   65 1
    69   24   66 1
    70   24   67 1
    71   25   68 1
    72   25   69 1
    73   26   70 1
    74   26   71 1
    75   27   72 1
    76   27   73 1
    77   28   74 1
    78   31   75 1
    79   31   76 1
    80   32   77 1
    81   32   78 1
    82   33   79 1
    83   34   80 1
@<TRIPOS>MOLECULE
1a46_ligand_117
   80    83     0     0     0
SMALL
USER_CHARGES

mmff94s_NoEstat = 83.61
@<TRIPOS>ATOM
      1 C1         11.0121    9.2104   -7.9325 C.ar      1 <0>        -0.1300
      2 C2         11.5385    8.8832   -6.6829 C.ar      1 <0>        -0.1323
      3 C3          9.6345    9.1559   -8.1449 C.ar      1 <0>        -0.1309
      4 C4         10.6874    8.5015   -5.6458 C.ar      1 <0>        -0.1275
      5 C5          8.7834    8.7742   -7.1078 C.ar      1 <0>        -0.1272
      6 C6          9.3154    8.4495   -5.8650 C.ar      1 <0>        -0.0843
      7 C7          7.2411    6.0968   -3.6024 C.2       1 <0>         0.6709
      8 C8          5.2358    2.3798    1.5634 C.2       1 <0>         0.4867
      9 C9          3.8230    2.3549    1.0577 C.2       1 <0>         0.5883
     10 C10         6.5256    3.6321   -1.6689 C.2       1 <0>         0.6572
     11 C11         1.4181    6.7678    0.8940 C.3       1 <0>        -0.0802
     12 C12         1.4560    5.8610    2.1213 C.3       1 <0>        -0.0765
     13 C13         2.2461    6.2031   -0.2573 C.3       1 <0>        -0.0774
     14 C14         1.0454    4.4289    1.7758 C.3       1 <0>        -0.0953
     15 C15         1.8333    4.7703   -0.5974 C.3       1 <0>        -0.0906
     16 C16         5.2113    3.0694   -3.7284 C.3       1 <0>        -0.0871
     17 C17         7.6012    6.0599   -6.1012 C.3       1 <0>        -0.0716
     18 C18         6.3446    2.7580   -4.7039 C.3       1 <0>         0.1333
     19 C19         6.8355    4.7264   -6.0536 C.3       1 <0>         0.1246
     20 C20         5.7868    4.1659   -2.8575 C.3       1 <0>         0.0606
     21 C21         1.8637    3.8371    0.6204 C.3       1 <0>         0.1012
     22 C22         8.1773    6.5224   -4.7422 C.3       1 <0>         0.1554
     23 C23         8.4000    8.0389   -4.7494 C.3       1 <0>        -0.0356
     24 C24         7.6485    3.7409    2.8432 C.3       1 <0>        -0.0795
     25 C25         8.2774    4.8743    3.6620 C.3       1 <0>        -0.1203
     26 C26         6.9719    4.2276    1.5544 C.3       1 <0>        -0.0920
     27 C27         8.9284    4.3945    4.9589 C.3       1 <0>         0.1502
     28 C28         6.2906    3.1130    0.7514 C.3       1 <0>         0.0224
     29 N1          6.7674    4.7991   -3.7183 N.am      1 <0>        -0.3553
     30 N2          7.1280    4.0001   -4.8193 N.3       1 <0>        -0.4320
     31 N3          9.4643    5.8648   -4.4722 N.3       1 <0>        -0.9031
     32 N4          9.4866    5.5266    5.6910 N.3       1 <0>        -0.9068
     33 N5          3.2455    3.6032    1.0456 N.am      1 <0>        -0.5526
     34 N6          5.7762    3.5917   -0.5046 N.am      1 <0>        -0.5576
     35 O1          6.9567    6.8465   -2.6685 O.2       1 <0>        -0.6710
     36 O2          5.4669    1.7271    2.5732 O.2       1 <0>        -0.4901
     37 O3          3.3466    1.2762    0.7444 O.2       1 <0>        -0.5902
     38 O4          7.6924    3.2783   -1.7917 O.2       1 <0>        -0.5833
     39 H1         11.6747    9.5075   -8.7400 H         1 <0>         0.1320
     40 H2         12.6111    8.9257   -6.5176 H         1 <0>         0.1324
     41 H3          9.2248    9.4105   -9.1180 H         1 <0>         0.1328
     42 H4         11.1066    8.2484   -4.6756 H         1 <0>         0.1324
     43 H5          7.7115    8.7346   -7.2826 H         1 <0>         0.1434
     44 H6          0.3784    6.8907    0.5662 H         1 <0>         0.0405
     45 H7          1.7877    7.7645    1.1601 H         1 <0>         0.0421
     46 H8          2.4665    5.8646    2.5474 H         1 <0>         0.0362
     47 H9          0.7860    6.2585    2.8922 H         1 <0>         0.0439
     48 H10         2.1267    6.8389   -1.1420 H         1 <0>         0.0350
     49 H11         3.3094    6.2291    0.0101 H         1 <0>         0.0428
     50 H12         1.1447    3.8004    2.6691 H         1 <0>         0.0663
     51 H13        -0.0166    4.4224    1.4992 H         1 <0>         0.0466
     52 H14         0.8166    4.7834   -1.0104 H         1 <0>         0.0493
     53 H15         2.4912    4.3837   -1.3851 H         1 <0>         0.0520
     54 H16         4.3507    3.4578   -4.2870 H         1 <0>         0.0915
     55 H17         4.8908    2.1856   -3.1683 H         1 <0>         0.0601
     56 H18         8.4120    5.9885   -6.8390 H         1 <0>         0.0688
     57 H19         6.9149    6.8257   -6.4876 H         1 <0>         0.0630
     58 H20         6.9926    1.9855   -4.2725 H         1 <0>         0.0807
     59 H21         5.9735    2.3729   -5.6602 H         1 <0>         0.0380
     60 H22         5.7592    4.9288   -6.1435 H         1 <0>         0.0484
     61 H23         7.1185    4.1245   -6.9255 H         1 <0>         0.0697
     62 H24         5.0406    4.8864   -2.5107 H         1 <0>         0.0843
     63 H25         1.4635    2.8554    0.3463 H         1 <0>         0.0831
     64 H26         8.8151    8.3408   -3.7861 H         1 <0>         0.0704
     65 H27         7.4343    8.5386   -4.8464 H         1 <0>         0.0718
     66 H28         8.4445    3.0306    2.5915 H         1 <0>         0.0606
     67 H29         6.9275    3.2007    3.4679 H         1 <0>         0.0458
     68 H30         9.0354    5.3625    3.0356 H         1 <0>         0.0375
     69 H31         7.5157    5.6329    3.8824 H         1 <0>         0.0392
     70 H32         7.7210    4.7221    0.9235 H         1 <0>         0.0606
     71 H33         6.2174    4.9831    1.8035 H         1 <0>         0.0579
     72 H34         9.7251    3.6753    4.7403 H         1 <0>         0.0571
     73 H35         8.1937    3.8977    5.5994 H         1 <0>         0.0503
     74 H36         7.0421    2.3587    0.4881 H         1 <0>         0.0993
     75 H37         9.5764    4.9261   -4.7778 H         1 <0>         0.3700
     76 H38        10.0811    6.3037   -3.8286 H         1 <0>         0.3660
     77 H39        10.0430    5.3371    6.4969 H         1 <0>         0.3465
     78 H40         9.1331    6.4373    5.4892 H         1 <0>         0.3446
     79 H41         3.8022    4.3983    1.3448 H         1 <0>         0.3148
     80 H42         4.8120    3.9176   -0.5391 H         1 <0>         0.3220
@<TRIPOS>BOND
     1    1    2 ar
     2    1    3 ar
     3    2    4 ar
     4    3    5 ar
     5    4    6 ar
     6    5    6 ar
     7    6   23 1
     8    7   22 1
     9    7   29 am
    10    7   35 2
    11    8    9 1
    12    8   28 1
    13    8   36 2
    14    9   33 am
    15    9   37 2
    16   10   20 1
    17   10   34 am
    18   10   38 2
    19   11   12 1
    20   11   13 1
    21   12   14 1
    22   13   15 1
    23   14   21 1
    24   15   21 1
    25   16   18 1
    26   16   20 1
    27   17   19 1
    28   17   22 1
    29   18   30 1
    30   19   30 1
    31   20   29 1
    32   21   33 1
    33   22   23 1
    34   22   31 1
    35   24   25 1
    36   24   26 1
    37   25   27 1
    38   26   28 1
    39   27   32 1
    40   28   34 1
    41   29   30 1
    42    1   39 1
    43    2   40 1
    44    3   41 1
    45    4   42 1
    46    5   43 1
    47   11   44 1
    48   11   45 1
    49   12   46 1
    50   12   47 1
    51   13   48 1
    52   13   49 1
    53   14   50 1
    54   14   51 1
    55   15   52 1
    56   15   53 1
    57   16   54 1
    58   16   55 1
    59   17   56 1
    60   17   57 1
    61   18   58 1
    62   18   59 1
    63   19   60 1
    64   19   61 1
    65   20   62 1
    66   21   63 1
    67   23   64 1
    68   23   65 1
    69   24   66 1
    70   24   67 1
    71   25   68 1
    72   25   69 1
    73   26   70 1
    74   26   71 1
    75   27   72 1
    76   27   73 1
    77   28   74 1
    78   31   75 1
    79   31   76 1
    80   32   77 1
    81   32   78 1
    82   33   79 1
    83   34   80 1
@<TRIPOS>MOLECULE
1a46_ligand_118
   80    83     0     0     0
SMALL
USER_CHARGES

mmff94s_NoEstat = 83.63
@<TRIPOS>ATOM
      1 C1         11.0121    9.2104   -7.9325 C.ar      1 <0>        -0.1300
      2 C2         11.5385    8.8832   -6.6829 C.ar      1 <0>        -0.1323
      3 C3          9.6345    9.1559   -8.1449 C.ar      1 <0>        -0.1309
      4 C4         10.6874    8.5015   -5.6458 C.ar      1 <0>        -0.1275
      5 C5          8.7834    8.7742   -7.1078 C.ar      1 <0>        -0.1272
      6 C6          9.3154    8.4495   -5.8650 C.ar      1 <0>        -0.0843
      7 C7          7.2411    6.0968   -3.6024 C.2       1 <0>         0.6709
      8 C8          5.2358    2.3798    1.5634 C.2       1 <0>         0.4867
      9 C9          5.6522    1.1980    2.3894 C.2       1 <0>         0.5883
     10 C10         6.5256    3.6321   -1.6689 C.2       1 <0>         0.6572
     11 C11         8.7227    2.0199    6.1701 C.3       1 <0>        -0.0802
     12 C12         8.9995    1.5375    4.7486 C.3       1 <0>        -0.0765
     13 C13         7.2401    2.3027    6.3972 C.3       1 <0>        -0.0774
     14 C14         8.1296    0.3339    4.3835 C.3       1 <0>        -0.0953
     15 C15         6.3745    1.0970    6.0285 C.3       1 <0>        -0.0906
     16 C16         5.2113    3.0694   -3.7284 C.3       1 <0>        -0.0871
     17 C17         7.6012    6.0599   -6.1012 C.3       1 <0>        -0.0716
     18 C18         6.3446    2.7580   -4.7039 C.3       1 <0>         0.1333
     19 C19         6.8355    4.7264   -6.0536 C.3       1 <0>         0.1246
     20 C20         5.7868    4.1659   -2.8575 C.3       1 <0>         0.0606
     21 C21         6.6330    0.5923    4.6026 C.3       1 <0>         0.1012
     22 C22         8.1773    6.5224   -4.7422 C.3       1 <0>         0.1554
     23 C23         8.4000    8.0389   -4.7494 C.3       1 <0>        -0.0356
     24 C24         8.0800    4.9598    0.7851 C.3       1 <0>        -0.0795
     25 C25         8.7880    6.0338    1.6192 C.3       1 <0>        -0.1203
     26 C26         6.9719    4.2276    1.5544 C.3       1 <0>        -0.0920
     27 C27         9.9095    6.7454    0.8629 C.3       1 <0>         0.1502
     28 C28         6.2906    3.1130    0.7514 C.3       1 <0>         0.0224
     29 N1          6.7674    4.7991   -3.7183 N.am      1 <0>        -0.3553
     30 N2          7.1280    4.0001   -4.8193 N.3       1 <0>        -0.4320
     31 N3          9.4643    5.8648   -4.4722 N.3       1 <0>        -0.9031
     32 N4         10.5470    7.7366    1.7233 N.3       1 <0>        -0.9068
     33 N5          6.1375    1.5625    3.6237 N.am      1 <0>        -0.5526
     34 N6          5.7762    3.5917   -0.5046 N.am      1 <0>        -0.5576
     35 O1          6.9567    6.8465   -2.6685 O.2       1 <0>        -0.6710
     36 O2          4.0675    2.7325    1.6631 O.2       1 <0>        -0.4901
     37 O3          5.5427    0.0877    1.8954 O.2       1 <0>        -0.5902
     38 O4          7.6924    3.2783   -1.7917 O.2       1 <0>        -0.5833
     39 H1         11.6747    9.5075   -8.7400 H         1 <0>         0.1320
     40 H2         12.6111    8.9257   -6.5176 H         1 <0>         0.1324
     41 H3          9.2248    9.4105   -9.1180 H         1 <0>         0.1328
     42 H4         11.1066    8.2484   -4.6756 H         1 <0>         0.1324
     43 H5          7.7115    8.7346   -7.2826 H         1 <0>         0.1434
     44 H6          9.0596    1.2576    6.8835 H         1 <0>         0.0405
     45 H7          9.3063    2.9251    6.3727 H         1 <0>         0.0421
     46 H8          8.8154    2.3561    4.0424 H         1 <0>         0.0362
     47 H9         10.0575    1.2680    4.6519 H         1 <0>         0.0439
     48 H10         7.0732    2.5664    7.4478 H         1 <0>         0.0350
     49 H11         6.9383    3.1721    5.8007 H         1 <0>         0.0428
     50 H12         8.3159    0.0588    3.3382 H         1 <0>         0.0663
     51 H13         8.4360   -0.5230    4.9969 H         1 <0>         0.0466
     52 H14         6.5799    0.2840    6.7364 H         1 <0>         0.0493
     53 H15         5.3172    1.3630    6.1484 H         1 <0>         0.0520
     54 H16         4.3507    3.4578   -4.2870 H         1 <0>         0.0915
     55 H17         4.8908    2.1856   -3.1683 H         1 <0>         0.0601
     56 H18         8.4120    5.9885   -6.8390 H         1 <0>         0.0688
     57 H19         6.9149    6.8257   -6.4876 H         1 <0>         0.0630
     58 H20         6.9926    1.9855   -4.2725 H         1 <0>         0.0807
     59 H21         5.9735    2.3729   -5.6602 H         1 <0>         0.0380
     60 H22         5.7592    4.9288   -6.1435 H         1 <0>         0.0484
     61 H23         7.1185    4.1245   -6.9255 H         1 <0>         0.0697
     62 H24         5.0406    4.8864   -2.5107 H         1 <0>         0.0843
     63 H25         6.0671   -0.3284    4.4260 H         1 <0>         0.0831
     64 H26         8.8151    8.3408   -3.7861 H         1 <0>         0.0704
     65 H27         7.4343    8.5386   -4.8464 H         1 <0>         0.0718
     66 H28         7.6494    5.4516   -0.0948 H         1 <0>         0.0606
     67 H29         8.8216    4.2418    0.4157 H         1 <0>         0.0458
     68 H30         8.0356    6.7709    1.9287 H         1 <0>         0.0375
     69 H31         9.1825    5.5824    2.5383 H         1 <0>         0.0392
     70 H32         6.2171    4.9575    1.8728 H         1 <0>         0.0606
     71 H33         7.3929    3.7874    2.4660 H         1 <0>         0.0579
     72 H34         9.5108    7.2416   -0.0285 H         1 <0>         0.0571
     73 H35        10.6706    6.0303    0.5375 H         1 <0>         0.0503
     74 H36         7.0421    2.3587    0.4881 H         1 <0>         0.0993
     75 H37         9.5764    4.9261   -4.7778 H         1 <0>         0.3700
     76 H38        10.0811    6.3037   -3.8286 H         1 <0>         0.3660
     77 H39        11.2163    8.3531    1.3147 H         1 <0>         0.3465
     78 H40        10.4498    7.6340    2.7108 H         1 <0>         0.3446
     79 H41         6.1529    2.5484    3.8672 H         1 <0>         0.3148
     80 H42         4.8120    3.9176   -0.5391 H         1 <0>         0.3220
@<TRIPOS>BOND
     1    1    2 ar
     2    1    3 ar
     3    2    4 ar
     4    3    5 ar
     5    4    6 ar
     6    5    6 ar
     7    6   23 1
     8    7   22 1
     9    7   29 am
    10    7   35 2
    11    8    9 1
    12    8   28 1
    13    8   36 2
    14    9   33 am
    15    9   37 2
    16   10   20 1
    17   10   34 am
    18   10   38 2
    19   11   12 1
    20   11   13 1
    21   12   14 1
    22   13   15 1
    23   14   21 1
    24   15   21 1
    25   16   18 1
    26   16   20 1
    27   17   19 1
    28   17   22 1
    29   18   30 1
    30   19   30 1
    31   20   29 1
    32   21   33 1
    33   22   23 1
    34   22   31 1
    35   24   25 1
    36   24   26 1
    37   25   27 1
    38   26   28 1
    39   27   32 1
    40   28   34 1
    41   29   30 1
    42    1   39 1
    43    2   40 1
    44    3   41 1
    45    4   42 1
    46    5   43 1
    47   11   44 1
    48   11   45 1
    49   12   46 1
    50   12   47 1
    51   13   48 1
    52   13   49 1
    53   14   50 1
    54   14   51 1
    55   15   52 1
    56   15   53 1
    57   16   54 1
    58   16   55 1
    59   17   56 1
    60   17   57 1
    61   18   58 1
    62   18   59 1
    63   19   60 1
    64   19   61 1
    65   20   62 1
    66   21   63 1
    67   23   64 1
    68   23   65 1
    69   24   66 1
    70   24   67 1
    71   25   68 1
    72   25   69 1
    73   26   70 1
    74   26   71 1
    75   27   72 1
    76   27   73 1
    77   28   74 1
    78   31   75 1
    79   31   76 1
    80   32   77 1
    81   32   78 1
    82   33   79 1
    83   34   80 1
@<TRIPOS>MOLECULE
1a46_ligand_119
   80    83     0     0     0
SMALL
USER_CHARGES

mmff94s_NoEstat = 83.64
@<TRIPOS>ATOM
      1 C1          5.4266   13.4365   -3.4169 C.ar      1 <0>        -0.1300
      2 C2          5.8751   12.9626   -2.1841 C.ar      1 <0>        -0.1323
      3 C3          4.6702   12.6105   -4.2484 C.ar      1 <0>        -0.1309
      4 C4          5.5674   11.6626   -1.7828 C.ar      1 <0>        -0.1275
      5 C5          4.3625   11.3105   -3.8471 C.ar      1 <0>        -0.1272
      6 C6          4.8131   10.8451   -2.6169 C.ar      1 <0>        -0.0843
      7 C7          5.2227    7.0215   -2.2038 C.2       1 <0>         0.6709
      8 C8          5.2358    2.3798    1.5634 C.2       1 <0>         0.4867
      9 C9          5.6457    1.7076    2.8411 C.2       1 <0>         0.5883
     10 C10         6.5648    4.1956   -1.4701 C.2       1 <0>         0.6572
     11 C11         2.8486    2.3942    6.8538 C.3       1 <0>        -0.0802
     12 C12         3.8094    3.5162    6.4691 C.3       1 <0>        -0.0765
     13 C13         2.9140    1.2269    5.8726 C.3       1 <0>        -0.0774
     14 C14         5.2382    2.9990    6.2966 C.3       1 <0>        -0.0953
     15 C15         4.3449    0.7149    5.7018 C.3       1 <0>        -0.0906
     16 C16         6.4370    4.0713   -3.9709 C.3       1 <0>        -0.0871
     17 C17         5.7185    8.5126   -4.1803 C.3       1 <0>        -0.0716
     18 C18         7.4589    5.1398   -4.3541 C.3       1 <0>         0.1333
     19 C19         6.3195    7.2447   -4.8112 C.3       1 <0>         0.1246
     20 C20         5.8189    4.6139   -2.6998 C.3       1 <0>         0.0606
     21 C21         5.3317    1.8242    5.3139 C.3       1 <0>         0.1012
     22 C22         5.5566    8.4542   -2.6431 C.3       1 <0>         0.1554
     23 C23         4.4821    9.4467   -2.1852 C.3       1 <0>        -0.0356
     24 C24         6.0158    5.3379    2.0114 C.3       1 <0>        -0.0795
     25 C25         6.7209    6.4716    2.7653 C.3       1 <0>        -0.1203
     26 C26         6.9719    4.2276    1.5544 C.3       1 <0>        -0.0920
     27 C27         5.7742    7.5909    3.1979 C.3       1 <0>         0.1502
     28 C28         6.2906    3.1130    0.7514 C.3       1 <0>         0.0224
     29 N1          5.9858    6.0487   -2.8308 N.am      1 <0>        -0.3553
     30 N2          6.9481    6.4032   -3.7946 N.3       1 <0>        -0.4320
     31 N3          6.8203    8.7957   -1.9738 N.3       1 <0>        -0.9031
     32 N4          6.5168    8.6391    3.8900 N.3       1 <0>        -0.9068
     33 N5          5.0674    2.2831    3.9484 N.am      1 <0>        -0.5526
     34 N6          5.7762    3.5917   -0.5046 N.am      1 <0>        -0.5576
     35 O1          4.3619    6.7750   -1.3592 O.2       1 <0>        -0.6710
     36 O2          4.0412    2.3628    1.2952 O.2       1 <0>        -0.4901
     37 O3          6.4307    0.7761    2.7710 O.2       1 <0>        -0.5902
     38 O4          7.7705    4.4014   -1.3956 O.2       1 <0>        -0.5833
     39 H1          5.6663   14.4486   -3.7294 H         1 <0>         0.1320
     40 H2          6.4640   13.6058   -1.5368 H         1 <0>         0.1324
     41 H3          4.3212   12.9796   -5.2084 H         1 <0>         0.1328
     42 H4          5.9211   11.3020   -0.8206 H         1 <0>         0.1324
     43 H5          3.7727   10.6741   -4.5015 H         1 <0>         0.1434
     44 H6          3.0952    2.0354    7.8608 H         1 <0>         0.0405
     45 H7          1.8251    2.7835    6.8965 H         1 <0>         0.0421
     46 H8          3.4697    3.9852    5.5378 H         1 <0>         0.0362
     47 H9          3.7921    4.2948    7.2403 H         1 <0>         0.0439
     48 H10         2.2729    0.4120    6.2280 H         1 <0>         0.0350
     49 H11         2.5148    1.5431    4.9013 H         1 <0>         0.0428
     50 H12         5.8813    3.8223    5.9625 H         1 <0>         0.0663
     51 H13         5.6180    2.6759    7.2742 H         1 <0>         0.0466
     52 H14         4.6733    0.2604    6.6452 H         1 <0>         0.0493
     53 H15         4.3549   -0.0798    4.9460 H         1 <0>         0.0520
     54 H16         5.6709    4.0073   -4.7535 H         1 <0>         0.0915
     55 H17         6.8936    3.0840   -3.8511 H         1 <0>         0.0601
     56 H18         6.3330    9.3815   -4.4524 H         1 <0>         0.0688
     57 H19         4.7383    8.6848   -4.6454 H         1 <0>         0.0630
     58 H20         8.4170    4.9158   -3.8698 H         1 <0>         0.0807
     59 H21         7.6408    5.1703   -5.4340 H         1 <0>         0.0380
     60 H22         5.5257    6.6966   -5.3375 H         1 <0>         0.0484
     61 H23         7.0554    7.5409   -5.5683 H         1 <0>         0.0697
     62 H24         4.7652    4.3476   -2.5772 H         1 <0>         0.0843
     63 H25         6.3523    1.4273    5.3051 H         1 <0>         0.0831
     64 H26         4.3919    9.3954   -1.0986 H         1 <0>         0.0704
     65 H27         3.5182    9.1401   -2.5956 H         1 <0>         0.0718
     66 H28         5.2579    4.9142    2.6804 H         1 <0>         0.0606
     67 H29         5.4809    5.7546    1.1500 H         1 <0>         0.0458
     68 H30         7.2000    6.0392    3.6534 H         1 <0>         0.0375
     69 H31         7.5258    6.8807    2.1417 H         1 <0>         0.0392
     70 H32         7.4599    3.7926    2.4354 H         1 <0>         0.0606
     71 H33         7.7645    4.6634    0.9347 H         1 <0>         0.0579
     72 H34         4.9986    7.1962    3.8630 H         1 <0>         0.0571
     73 H35         5.2784    8.0349    2.3297 H         1 <0>         0.0503
     74 H36         7.0421    2.3587    0.4881 H         1 <0>         0.0993
     75 H37         7.6658    8.5036   -2.4065 H         1 <0>         0.3700
     76 H38         6.7736    9.1160   -1.0343 H         1 <0>         0.3660
     77 H39         5.9996    9.3711    4.3277 H         1 <0>         0.3465
     78 H40         7.4997    8.7018    3.7315 H         1 <0>         0.3446
     79 H41         4.4287    3.0611    3.8132 H         1 <0>         0.3148
     80 H42         4.7816    3.4809   -0.6931 H         1 <0>         0.3220
@<TRIPOS>BOND
     1    1    2 ar
     2    1    3 ar
     3    2    4 ar
     4    3    5 ar
     5    4    6 ar
     6    5    6 ar
     7    6   23 1
     8    7   22 1
     9    7   29 am
    10    7   35 2
    11    8    9 1
    12    8   28 1
    13    8   36 2
    14    9   33 am
    15    9   37 2
    16   10   20 1
    17   10   34 am
    18   10   38 2
    19   11   12 1
    20   11   13 1
    21   12   14 1
    22   13   15 1
    23   14   21 1
    24   15   21 1
    25   16   18 1
    26   16   20 1
    27   17   19 1
    28   17   22 1
    29   18   30 1
    30   19   30 1
    31   20   29 1
    32   21   33 1
    33   22   23 1
    34   22   31 1
    35   24   25 1
    36   24   26 1
    37   25   27 1
    38   26   28 1
    39   27   32 1
    40   28   34 1
    41   29   30 1
    42    1   39 1
    43    2   40 1
    44    3   41 1
    45    4   42 1
    46    5   43 1
    47   11   44 1
    48   11   45 1
    49   12   46 1
    50   12   47 1
    51   13   48 1
    52   13   49 1
    53   14   50 1
    54   14   51 1
    55   15   52 1
    56   15   53 1
    57   16   54 1
    58   16   55 1
    59   17   56 1
    60   17   57 1
    61   18   58 1
    62   18   59 1
    63   19   60 1
    64   19   61 1
    65   20   62 1
    66   21   63 1
    67   23   64 1
    68   23   65 1
    69   24   66 1
    70   24   67 1
    71   25   68 1
    72   25   69 1
    73   26   70 1
    74   26   71 1
    75   27   72 1
    76   27   73 1
    77   28   74 1
    78   31   75 1
    79   31   76 1
    80   32   77 1
    81   32   78 1
    82   33   79 1
    83   34   80 1
@<TRIPOS>MOLECULE
1a46_ligand_120
   80    83     0     0     0
SMALL
USER_CHARGES

mmff94s_NoEstat = 83.65
@<TRIPOS>ATOM
      1 C1         -7.4797    9.4967   -7.6833 C.ar      1 <0>        -0.1300
      2 C2         -6.1413    9.8890   -7.6640 C.ar      1 <0>        -0.1323
      3 C3         -7.8300    8.1942   -7.3275 C.ar      1 <0>        -0.1309
      4 C4         -5.1531    8.9788   -7.2890 C.ar      1 <0>        -0.1275
      5 C5         -6.8418    7.2840   -6.9525 C.ar      1 <0>        -0.1272
      6 C6         -5.5098    7.6822   -6.9356 C.ar      1 <0>        -0.0843
      7 C7         -2.8249    4.9275   -7.3366 C.2       1 <0>         0.6709
      8 C8          2.7796    3.2097   -6.1637 C.2       1 <0>         0.4867
      9 C9          2.2829    2.0299   -5.3801 C.2       1 <0>         0.5883
     10 C10        -0.2306    3.3845   -8.4382 C.2       1 <0>         0.6572
     11 C11         0.2190   -2.9255   -6.0120 C.3       1 <0>        -0.0802
     12 C12        -0.4286   -1.7622   -5.2661 C.3       1 <0>        -0.0765
     13 C13         1.7414   -2.8769   -5.9183 C.3       1 <0>        -0.0774
     14 C14         0.1197   -0.4160   -5.7365 C.3       1 <0>        -0.0953
     15 C15         2.2921   -1.5322   -6.3901 C.3       1 <0>        -0.0906
     16 C16        -2.0896    1.9125   -9.2523 C.3       1 <0>        -0.0871
     17 C17        -5.0696    5.1956   -8.4612 C.3       1 <0>        -0.0716
     18 C18        -2.7315    2.8271  -10.2937 C.3       1 <0>         0.1333
     19 C19        -4.6344    3.9888   -9.3103 C.3       1 <0>         0.1246
     20 C20        -1.6152    2.8736   -8.1831 C.3       1 <0>         0.0606
     21 C21         1.6479   -0.3676   -5.6301 C.3       1 <0>         0.1012
     22 C22        -3.9131    5.9309   -7.7439 C.3       1 <0>         0.1554
     23 C23        -4.4468    6.7032   -6.5322 C.3       1 <0>        -0.0356
     24 C24         1.5857    6.0302   -6.5865 C.3       1 <0>        -0.0795
     25 C25         1.6811    7.5259   -6.9095 C.3       1 <0>        -0.1203
     26 C26         2.1570    5.1335   -7.6933 C.3       1 <0>        -0.0920
     27 C27         0.9506    7.9153   -8.1942 C.3       1 <0>         0.1502
     28 C28         2.0196    3.6328   -7.4097 C.3       1 <0>         0.0224
     29 N1         -2.5167    4.0015   -8.3211 N.am      1 <0>        -0.3553
     30 N2         -3.1935    4.0149   -9.5549 N.3       1 <0>        -0.4320
     31 N3         -3.2606    6.8849   -8.6526 N.3       1 <0>        -0.9031
     32 N4          1.1008    9.3448   -8.4455 N.3       1 <0>        -0.9068
     33 N5          2.1424    0.9032   -6.1564 N.am      1 <0>        -0.5526
     34 N6          0.6426    3.2153   -7.3763 N.am      1 <0>        -0.5576
     35 O1         -2.2744    4.9630   -6.2362 O.2       1 <0>        -0.6710
     36 O2          3.8302    3.7133   -5.7870 O.2       1 <0>        -0.4901
     37 O3          2.0451    2.1901   -4.1942 O.2       1 <0>        -0.5902
     38 O4          0.0350    3.8958   -9.5198 O.2       1 <0>        -0.5833
     39 H1         -8.2492   10.2053   -7.9754 H         1 <0>         0.1320
     40 H2         -5.8687   10.9031   -7.9411 H         1 <0>         0.1324
     41 H3         -8.8721    7.8888   -7.3428 H         1 <0>         0.1328
     42 H4         -4.1129    9.2934   -7.2769 H         1 <0>         0.1324
     43 H5         -7.1240    6.2713   -6.6769 H         1 <0>         0.1434
     44 H6         -0.1454   -3.8745   -5.6028 H         1 <0>         0.0405
     45 H7         -0.0821   -2.8947   -7.0664 H         1 <0>         0.0421
     46 H8         -1.5143   -1.7893   -5.4125 H         1 <0>         0.0362
     47 H9         -0.2482   -1.8725   -4.1898 H         1 <0>         0.0439
     48 H10         2.0499   -3.0529   -4.8804 H         1 <0>         0.0350
     49 H11         2.1735   -3.6837   -6.5210 H         1 <0>         0.0428
     50 H12        -0.1899   -0.2393   -6.7751 H         1 <0>         0.0663
     51 H13        -0.3231    0.3905   -5.1396 H         1 <0>         0.0466
     52 H14         3.3802   -1.5121   -6.2536 H         1 <0>         0.0493
     53 H15         2.1121   -1.4224   -7.4677 H         1 <0>         0.0520
     54 H16        -2.8557    1.2475   -8.8346 H         1 <0>         0.0915
     55 H17        -1.2902    1.2972   -9.6764 H         1 <0>         0.0601
     56 H18        -5.6211    5.9056   -9.0926 H         1 <0>         0.0688
     57 H19        -5.7930    4.8367   -7.7165 H         1 <0>         0.0630
     58 H20        -1.9690    3.1489  -11.0132 H         1 <0>         0.0807
     59 H21        -3.5191    2.3193  -10.8614 H         1 <0>         0.0380
     60 H22        -4.9276    3.0642   -8.7940 H         1 <0>         0.0484
     61 H23        -5.1821    4.0085  -10.2602 H         1 <0>         0.0697
     62 H24        -1.6538    2.4576   -7.1723 H         1 <0>         0.0843
     63 H25         1.9476   -0.4013   -4.5763 H         1 <0>         0.0831
     64 H26        -3.6167    7.2210   -6.0482 H         1 <0>         0.0704
     65 H27        -4.8413    5.9920   -5.8041 H         1 <0>         0.0718
     66 H28         2.1358    5.8550   -5.6547 H         1 <0>         0.0606
     67 H29         0.5392    5.7688   -6.3906 H         1 <0>         0.0458
     68 H30         1.2509    8.0813   -6.0658 H         1 <0>         0.0375
     69 H31         2.7364    7.8199   -6.9737 H         1 <0>         0.0392
     70 H32         3.2164    5.3787   -7.8393 H         1 <0>         0.0606
     71 H33         1.6466    5.3535   -8.6384 H         1 <0>         0.0579
     72 H34        -0.1142    7.6709   -8.1144 H         1 <0>         0.0571
     73 H35         1.3573    7.3696   -9.0507 H         1 <0>         0.0503
     74 H36         2.4714    3.0747   -8.2388 H         1 <0>         0.0993
     75 H37        -3.1845    6.6323   -9.6106 H         1 <0>         0.3700
     76 H38        -2.7498    7.6342   -8.2464 H         1 <0>         0.3660
     77 H39         0.5734    9.7495   -9.1891 H         1 <0>         0.3465
     78 H40         1.8624    9.8209   -8.0113 H         1 <0>         0.3446
     79 H41         2.3934    0.9566   -7.1391 H         1 <0>         0.3148
     80 H42         0.2924    2.7728   -6.5286 H         1 <0>         0.3220
@<TRIPOS>BOND
     1    1    2 ar
     2    1    3 ar
     3    2    4 ar
     4    3    5 ar
     5    4    6 ar
     6    5    6 ar
     7    6   23 1
     8    7   22 1
     9    7   29 am
    10    7   35 2
    11    8    9 1
    12    8   28 1
    13    8   36 2
    14    9   33 am
    15    9   37 2
    16   10   20 1
    17   10   34 am
    18   10   38 2
    19   11   12 1
    20   11   13 1
    21   12   14 1
    22   13   15 1
    23   14   21 1
    24   15   21 1
    25   16   18 1
    26   16   20 1
    27   17   19 1
    28   17   22 1
    29   18   30 1
    30   19   30 1
    31   20   29 1
    32   21   33 1
    33   22   23 1
    34   22   31 1
    35   24   25 1
    36   24   26 1
    37   25   27 1
    38   26   28 1
    39   27   32 1
    40   28   34 1
    41   29   30 1
    42    1   39 1
    43    2   40 1
    44    3   41 1
    45    4   42 1
    46    5   43 1
    47   11   44 1
    48   11   45 1
    49   12   46 1
    50   12   47 1
    51   13   48 1
    52   13   49 1
    53   14   50 1
    54   14   51 1
    55   15   52 1
    56   15   53 1
    57   16   54 1
    58   16   55 1
    59   17   56 1
    60   17   57 1
    61   18   58 1
    62   18   59 1
    63   19   60 1
    64   19   61 1
    65   20   62 1
    66   21   63 1
    67   23   64 1
    68   23   65 1
    69   24   66 1
    70   24   67 1
    71   25   68 1
    72   25   69 1
    73   26   70 1
    74   26   71 1
    75   27   72 1
    76   27   73 1
    77   28   74 1
    78   31   75 1
    79   31   76 1
    80   32   77 1
    81   32   78 1
    82   33   79 1
    83   34   80 1
@<TRIPOS>MOLECULE
1a46_ligand_121
   80    83     0     0     0
SMALL
USER_CHARGES

mmff94s_NoEstat = 83.65
@<TRIPOS>ATOM
      1 C1          5.9504   -1.3642  -10.1903 C.ar      1 <0>        -0.1300
      2 C2          6.6765   -1.8241   -9.0918 C.ar      1 <0>        -0.1323
      3 C3          5.5463   -0.0305  -10.2504 C.ar      1 <0>        -0.1309
      4 C4          6.9984   -0.9504   -8.0532 C.ar      1 <0>        -0.1275
      5 C5          5.8681    0.8432   -9.2119 C.ar      1 <0>        -0.1272
      6 C6          6.5921    0.3776   -8.1201 C.ar      1 <0>        -0.0843
      7 C7          6.1974    2.2868   -4.7798 C.2       1 <0>         0.6709
      8 C8          5.2358    2.3798    1.5634 C.2       1 <0>         0.4867
      9 C9          5.6522    1.1980    2.3894 C.2       1 <0>         0.5883
     10 C10         5.7098    2.8119   -1.6475 C.2       1 <0>         0.6572
     11 C11         8.5733   -2.2013    0.3137 C.3       1 <0>        -0.0802
     12 C12         7.0878   -2.2472   -0.0344 C.3       1 <0>        -0.0765
     13 C13         8.9012   -1.0498    1.2605 C.3       1 <0>        -0.0774
     14 C14         6.2162   -2.2794    1.2217 C.3       1 <0>        -0.0953
     15 C15         8.0255   -1.0852    2.5138 C.3       1 <0>        -0.0906
     16 C16         3.6723    3.8570   -2.6681 C.3       1 <0>        -0.0871
     17 C17         4.4858    1.7161   -6.5463 C.3       1 <0>        -0.0716
     18 C18         2.9535    2.6133   -3.1875 C.3       1 <0>         0.1333
     19 C19         3.4659    2.2898   -5.5476 C.3       1 <0>         0.1246
     20 C20         5.1372    3.5153   -2.8394 C.3       1 <0>         0.0606
     21 C21         6.5260   -1.1310    2.1912 C.3       1 <0>         0.1012
     22 C22         5.8481    1.3265   -5.9256 C.3       1 <0>         0.1554
     23 C23         6.9383    1.3175   -7.0029 C.3       1 <0>        -0.0356
     24 C24         7.6485    3.7409    2.8432 C.3       1 <0>        -0.0795
     25 C25         8.2774    4.8743    3.6620 C.3       1 <0>        -0.1203
     26 C26         6.9719    4.2276    1.5544 C.3       1 <0>        -0.0920
     27 C27         8.9284    4.3945    4.9589 C.3       1 <0>         0.1502
     28 C28         6.2906    3.1130    0.7514 C.3       1 <0>         0.0224
     29 N1          5.1345    2.5635   -3.9339 N.am      1 <0>        -0.3553
     30 N2          3.8653    2.0037   -4.1710 N.3       1 <0>        -0.4320
     31 N3          5.7803   -0.0123   -5.3216 N.3       1 <0>        -0.9031
     32 N4          9.4866    5.5266    5.6910 N.3       1 <0>        -0.9068
     33 N5          6.0911    0.1457    1.6201 N.am      1 <0>        -0.5526
     34 N6          5.7762    3.5917   -0.5046 N.am      1 <0>        -0.5576
     35 O1          7.3278    2.7504   -4.6301 O.2       1 <0>        -0.6710
     36 O2          4.0675    2.7325    1.6631 O.2       1 <0>        -0.4901
     37 O3          5.5431    1.2807    3.6019 O.2       1 <0>        -0.5902
     38 O4          6.0670    1.6440   -1.7490 O.2       1 <0>        -0.5833
     39 H1          5.6997   -2.0446  -10.9989 H         1 <0>         0.1320
     40 H2          6.9911   -2.8626   -9.0451 H         1 <0>         0.1324
     41 H3          4.9808    0.3274  -11.1059 H         1 <0>         0.1328
     42 H4          7.5644   -1.3176   -7.2012 H         1 <0>         0.1324
     43 H5          5.5489    1.8806   -9.2673 H         1 <0>         0.1434
     44 H6          8.8652   -3.1496    0.7818 H         1 <0>         0.0405
     45 H7          9.1645   -2.1042   -0.6039 H         1 <0>         0.0421
     46 H8          6.8280   -1.3732   -0.6439 H         1 <0>         0.0362
     47 H9          6.8815   -3.1326   -0.6466 H         1 <0>         0.0439
     48 H10         9.9572   -1.1013    1.5494 H         1 <0>         0.0350
     49 H11         8.7621   -0.0959    0.7377 H         1 <0>         0.0428
     50 H12         5.1599   -2.2505    0.9279 H         1 <0>         0.0663
     51 H13         6.3761   -3.2341    1.7388 H         1 <0>         0.0466
     52 H14         8.2894   -1.9712    3.1052 H         1 <0>         0.0493
     53 H15         8.2509   -0.2099    3.1351 H         1 <0>         0.0520
     54 H16         3.4181    4.7133   -3.3051 H         1 <0>         0.0915
     55 H17         3.3944    4.0971   -1.6373 H         1 <0>         0.0601
     56 H18         4.0497    0.8441   -7.0524 H         1 <0>         0.0688
     57 H19         4.6431    2.4675   -7.3320 H         1 <0>         0.0630
     58 H20         2.8170    1.9026   -2.3635 H         1 <0>         0.0807
     59 H21         1.9588    2.8453   -3.5837 H         1 <0>         0.0380
     60 H22         3.3744    3.3723   -5.7123 H         1 <0>         0.0484
     61 H23         2.4818    1.8533   -5.7569 H         1 <0>         0.0697
     62 H24         5.7646    4.3810   -3.0694 H         1 <0>         0.0843
     63 H25         5.9510   -1.2586    3.1143 H         1 <0>         0.0831
     64 H26         7.8868    1.0311   -6.5450 H         1 <0>         0.0704
     65 H27         7.0672    2.3317   -7.3854 H         1 <0>         0.0718
     66 H28         8.4445    3.0306    2.5915 H         1 <0>         0.0606
     67 H29         6.9275    3.2007    3.4679 H         1 <0>         0.0458
     68 H30         9.0354    5.3625    3.0356 H         1 <0>         0.0375
     69 H31         7.5157    5.6329    3.8824 H         1 <0>         0.0392
     70 H32         7.7210    4.7221    0.9235 H         1 <0>         0.0606
     71 H33         6.2174    4.9831    1.8035 H         1 <0>         0.0579
     72 H34         9.7251    3.6753    4.7403 H         1 <0>         0.0571
     73 H35         8.1937    3.8977    5.5994 H         1 <0>         0.0503
     74 H36         7.0421    2.3587    0.4881 H         1 <0>         0.0993
     75 H37         4.9287   -0.2795   -4.8849 H         1 <0>         0.3700
     76 H38         6.6336   -0.5056   -5.1950 H         1 <0>         0.3660
     77 H39        10.0430    5.3371    6.4969 H         1 <0>         0.3465
     78 H40         9.1331    6.4373    5.4892 H         1 <0>         0.3446
     79 H41         6.1146    0.2589    0.6111 H         1 <0>         0.3148
     80 H42         5.4441    4.5531   -0.5557 H         1 <0>         0.3220
@<TRIPOS>BOND
     1    1    2 ar
     2    1    3 ar
     3    2    4 ar
     4    3    5 ar
     5    4    6 ar
     6    5    6 ar
     7    6   23 1
     8    7   22 1
     9    7   29 am
    10    7   35 2
    11    8    9 1
    12    8   28 1
    13    8   36 2
    14    9   33 am
    15    9   37 2
    16   10   20 1
    17   10   34 am
    18   10   38 2
    19   11   12 1
    20   11   13 1
    21   12   14 1
    22   13   15 1
    23   14   21 1
    24   15   21 1
    25   16   18 1
    26   16   20 1
    27   17   19 1
    28   17   22 1
    29   18   30 1
    30   19   30 1
    31   20   29 1
    32   21   33 1
    33   22   23 1
    34   22   31 1
    35   24   25 1
    36   24   26 1
    37   25   27 1
    38   26   28 1
    39   27   32 1
    40   28   34 1
    41   29   30 1
    42    1   39 1
    43    2   40 1
    44    3   41 1
    45    4   42 1
    46    5   43 1
    47   11   44 1
    48   11   45 1
    49   12   46 1
    50   12   47 1
    51   13   48 1
    52   13   49 1
    53   14   50 1
    54   14   51 1
    55   15   52 1
    56   15   53 1
    57   16   54 1
    58   16   55 1
    59   17   56 1
    60   17   57 1
    61   18   58 1
    62   18   59 1
    63   19   60 1
    64   19   61 1
    65   20   62 1
    66   21   63 1
    67   23   64 1
    68   23   65 1
    69   24   66 1
    70   24   67 1
    71   25   68 1
    72   25   69 1
    73   26   70 1
    74   26   71 1
    75   27   72 1
    76   27   73 1
    77   28   74 1
    78   31   75 1
    79   31   76 1
    80   32   77 1
    81   32   78 1
    82   33   79 1
    83   34   80 1
@<TRIPOS>MOLECULE
1a46_ligand_122
   80    83     0     0     0
SMALL
USER_CHARGES

mmff94s_NoEstat = 83.66
@<TRIPOS>ATOM
      1 C1         -4.4072   -3.0319  -14.4211 C.ar      1 <0>        -0.1300
      2 C2         -3.1014   -2.5683  -14.5810 C.ar      1 <0>        -0.1323
      3 C3         -5.2666   -2.3997  -13.5224 C.ar      1 <0>        -0.1309
      4 C4         -2.6549   -1.4727  -13.8421 C.ar      1 <0>        -0.1275
      5 C5         -4.8200   -1.3041  -12.7835 C.ar      1 <0>        -0.1272
      6 C6         -3.5171   -0.8478  -12.9482 C.ar      1 <0>        -0.0843
      7 C7         -1.9267    1.0916  -10.0042 C.2       1 <0>         0.6709
      8 C8          2.7796    3.2097   -6.1637 C.2       1 <0>         0.4867
      9 C9          4.2189    2.8058   -6.2975 C.2       1 <0>         0.5883
     10 C10         0.2181    1.9581   -7.7739 C.2       1 <0>         0.6572
     11 C11         9.1289    4.8407   -7.2799 C.3       1 <0>        -0.0802
     12 C12         8.4240    3.7484   -8.0791 C.3       1 <0>        -0.0765
     13 C13         8.7403    4.7992   -5.8048 C.3       1 <0>        -0.0774
     14 C14         6.9083    3.8056   -7.8965 C.3       1 <0>        -0.0953
     15 C15         7.2249    4.8584   -5.6197 C.3       1 <0>        -0.0906
     16 C16        -1.6423    1.0361   -6.3687 C.3       1 <0>        -0.0871
     17 C17        -3.4475   -0.9240   -9.9997 C.3       1 <0>        -0.0716
     18 C18        -1.5606   -0.4439   -6.7372 C.3       1 <0>         0.1333
     19 C19        -3.1819   -0.9495   -8.4846 C.3       1 <0>         0.1246
     20 C20        -1.2590    1.7411   -7.6524 C.3       1 <0>         0.0606
     21 C21         6.5220    3.7522   -6.4143 C.3       1 <0>         0.1012
     22 C22        -2.4199   -0.1108  -10.8216 C.3       1 <0>         0.1554
     23 C23        -3.0368    0.3307  -12.1535 C.3       1 <0>        -0.0356
     24 C24         1.5857    6.0302   -6.5865 C.3       1 <0>        -0.0795
     25 C25         1.6811    7.5259   -6.9095 C.3       1 <0>        -0.1203
     26 C26         2.1570    5.1335   -7.6933 C.3       1 <0>        -0.0920
     27 C27         1.0885    8.4192   -5.8200 C.3       1 <0>         0.1502
     28 C28         2.0196    3.6328   -7.4097 C.3       1 <0>         0.0224
     29 N1         -1.6352    0.7917   -8.6825 N.am      1 <0>        -0.3553
     30 N2         -1.8196   -0.5121   -8.1858 N.3       1 <0>        -0.4320
     31 N3         -1.2259   -0.9195  -11.1076 N.3       1 <0>        -0.9031
     32 N4          1.1980    9.8225   -6.2046 N.3       1 <0>        -0.9068
     33 N5          5.0731    3.8835   -6.2736 N.am      1 <0>        -0.5526
     34 N6          0.6426    3.2153   -7.3763 N.am      1 <0>        -0.5576
     35 O1         -1.7935    2.2123  -10.4955 O.2       1 <0>        -0.6710
     36 O2          2.3266    3.2509   -5.0269 O.2       1 <0>        -0.4901
     37 O3          4.4699    1.6191   -6.4296 O.2       1 <0>        -0.5902
     38 O4          0.9290    1.0536   -8.1959 O.2       1 <0>        -0.5833
     39 H1         -4.7549   -3.8850  -14.9963 H         1 <0>         0.1320
     40 H2         -2.4324   -3.0606  -15.2808 H         1 <0>         0.1324
     41 H3         -6.2832   -2.7609  -13.3979 H         1 <0>         0.1328
     42 H4         -1.6358   -1.1186  -13.9733 H         1 <0>         0.1324
     43 H5         -5.4966   -0.8180  -12.0857 H         1 <0>         0.1434
     44 H6         10.2144    4.7275   -7.3785 H         1 <0>         0.0405
     45 H7          8.8701    5.8216   -7.6973 H         1 <0>         0.0421
     46 H8          8.6712    3.8513   -9.1417 H         1 <0>         0.0362
     47 H9          8.7922    2.7659   -7.7589 H         1 <0>         0.0439
     48 H10         9.1270    3.8788   -5.3503 H         1 <0>         0.0350
     49 H11         9.2088    5.6374   -5.2767 H         1 <0>         0.0428
     50 H12         6.5209    4.7264   -8.3524 H         1 <0>         0.0663
     51 H13         6.4410    2.9725   -8.4356 H         1 <0>         0.0466
     52 H14         6.9807    4.7671   -4.5544 H         1 <0>         0.0493
     53 H15         6.8567    5.8421   -5.9396 H         1 <0>         0.0520
     54 H16        -2.6779    1.2865   -6.1074 H         1 <0>         0.0915
     55 H17        -0.9998    1.2887   -5.5196 H         1 <0>         0.0601
     56 H18        -3.4897   -1.9539  -10.3797 H         1 <0>         0.0688
     57 H19        -4.4523   -0.5086  -10.1558 H         1 <0>         0.0630
     58 H20        -0.5419   -0.8072   -6.5560 H         1 <0>         0.0807
     59 H21        -2.2364   -1.0589   -6.1327 H         1 <0>         0.0380
     60 H22        -3.9187   -0.3080   -7.9817 H         1 <0>         0.0484
     61 H23        -3.3442   -1.9688   -8.1140 H         1 <0>         0.0697
     62 H24        -1.7661    2.6997   -7.7936 H         1 <0>         0.0843
     63 H25         6.7837    2.7727   -5.9978 H         1 <0>         0.0831
     64 H26        -2.2923    0.8934  -12.7197 H         1 <0>         0.0704
     65 H27        -3.8625    1.0157  -11.9521 H         1 <0>         0.0718
     66 H28         2.1358    5.8550   -5.6547 H         1 <0>         0.0606
     67 H29         0.5392    5.7688   -6.3906 H         1 <0>         0.0458
     68 H30         2.7419    7.7748   -7.0444 H         1 <0>         0.0375
     69 H31         1.1870    7.7255   -7.8687 H         1 <0>         0.0392
     70 H32         3.2164    5.3787   -7.8393 H         1 <0>         0.0606
     71 H33         1.6466    5.3535   -8.6384 H         1 <0>         0.0579
     72 H34         1.6137    8.2608   -4.8719 H         1 <0>         0.0571
     73 H35         0.0315    8.1861   -5.6617 H         1 <0>         0.0503
     74 H36         2.4714    3.0747   -8.2388 H         1 <0>         0.0993
     75 H37        -0.9249   -1.5612  -10.4112 H         1 <0>         0.3700
     76 H38        -0.6609   -0.6518  -11.8799 H         1 <0>         0.3660
     77 H39         0.9557   10.5154   -5.5293 H         1 <0>         0.3465
     78 H40         1.3102   10.0373   -7.1723 H         1 <0>         0.3446
     79 H41         4.6795    4.8120   -6.1527 H         1 <0>         0.3148
     80 H42        -0.0552    3.8781   -7.0434 H         1 <0>         0.3220
@<TRIPOS>BOND
     1    1    2 ar
     2    1    3 ar
     3    2    4 ar
     4    3    5 ar
     5    4    6 ar
     6    5    6 ar
     7    6   23 1
     8    7   22 1
     9    7   29 am
    10    7   35 2
    11    8    9 1
    12    8   28 1
    13    8   36 2
    14    9   33 am
    15    9   37 2
    16   10   20 1
    17   10   34 am
    18   10   38 2
    19   11   12 1
    20   11   13 1
    21   12   14 1
    22   13   15 1
    23   14   21 1
    24   15   21 1
    25   16   18 1
    26   16   20 1
    27   17   19 1
    28   17   22 1
    29   18   30 1
    30   19   30 1
    31   20   29 1
    32   21   33 1
    33   22   23 1
    34   22   31 1
    35   24   25 1
    36   24   26 1
    37   25   27 1
    38   26   28 1
    39   27   32 1
    40   28   34 1
    41   29   30 1
    42    1   39 1
    43    2   40 1
    44    3   41 1
    45    4   42 1
    46    5   43 1
    47   11   44 1
    48   11   45 1
    49   12   46 1
    50   12   47 1
    51   13   48 1
    52   13   49 1
    53   14   50 1
    54   14   51 1
    55   15   52 1
    56   15   53 1
    57   16   54 1
    58   16   55 1
    59   17   56 1
    60   17   57 1
    61   18   58 1
    62   18   59 1
    63   19   60 1
    64   19   61 1
    65   20   62 1
    66   21   63 1
    67   23   64 1
    68   23   65 1
    69   24   66 1
    70   24   67 1
    71   25   68 1
    72   25   69 1
    73   26   70 1
    74   26   71 1
    75   27   72 1
    76   27   73 1
    77   28   74 1
    78   31   75 1
    79   31   76 1
    80   32   77 1
    81   32   78 1
    82   33   79 1
    83   34   80 1
@<TRIPOS>MOLECULE
1a46_ligand_123
   80    83     0     0     0
SMALL
USER_CHARGES

mmff94s_NoEstat = 83.66
@<TRIPOS>ATOM
      1 C1          1.7409   12.3935   -1.5361 C.ar      1 <0>        -0.1300
      2 C2          2.2430   11.8090   -0.3734 C.ar      1 <0>        -0.1323
      3 C3          1.4857   11.6057   -2.6586 C.ar      1 <0>        -0.1309
      4 C4          2.4901   10.4368   -0.3331 C.ar      1 <0>        -0.1275
      5 C5          1.7328   10.2334   -2.6183 C.ar      1 <0>        -0.1272
      6 C6          2.2334    9.6580   -1.4559 C.ar      1 <0>        -0.0843
      7 C7          4.2075    6.3518   -1.8158 C.2       1 <0>         0.6709
      8 C8          5.2358    2.3798    1.5634 C.2       1 <0>         0.4867
      9 C9          4.0737    1.7586    0.8450 C.2       1 <0>         0.5883
     10 C10         6.5648    4.1956   -1.4701 C.2       1 <0>         0.6572
     11 C11        -0.3101    1.8066    3.1204 C.3       1 <0>        -0.0802
     12 C12         0.7521    0.7144    3.0271 C.3       1 <0>        -0.0765
     13 C13         0.1163    3.0793    2.3936 C.3       1 <0>        -0.0774
     14 C14         1.1457    0.4346    1.5761 C.3       1 <0>        -0.0953
     15 C15         0.5110    2.7940    0.9439 C.3       1 <0>        -0.0906
     16 C16         6.7154    4.7360   -3.9137 C.3       1 <0>        -0.0871
     17 C17         4.1811    8.4057   -3.2842 C.3       1 <0>        -0.0716
     18 C18         7.2083    6.1802   -3.8482 C.3       1 <0>         0.1333
     19 C19         5.3192    7.7064   -4.0474 C.3       1 <0>         0.1246
     20 C20         5.8189    4.6139   -2.6998 C.3       1 <0>         0.0606
     21 C21         1.5791    1.6990    0.8223 C.3       1 <0>         0.1012
     22 C22         3.9302    7.8611   -1.8583 C.3       1 <0>         0.1554
     23 C23         2.4991    8.1819   -1.4126 C.3       1 <0>        -0.0356
     24 C24         6.0158    5.3379    2.0114 C.3       1 <0>        -0.0795
     25 C25         6.7209    6.4716    2.7653 C.3       1 <0>        -0.1203
     26 C26         6.9719    4.2276    1.5544 C.3       1 <0>        -0.0920
     27 C27         5.7742    7.5909    3.1979 C.3       1 <0>         0.1502
     28 C28         6.2906    3.1130    0.7514 C.3       1 <0>         0.0224
     29 N1          5.3643    5.9735   -2.4795 N.am      1 <0>        -0.3553
     30 N2          6.1593    6.9309   -3.1367 N.3       1 <0>        -0.4320
     31 N3          4.8633    8.4685   -0.8981 N.3       1 <0>        -0.9031
     32 N4          4.7531    7.0666    4.0988 N.3       1 <0>        -0.9068
     33 N5          2.8617    2.1823    1.3384 N.am      1 <0>        -0.5526
     34 N6          5.7762    3.5917   -0.5046 N.am      1 <0>        -0.5576
     35 O1          3.4676    5.5621   -1.2293 O.2       1 <0>        -0.6710
     36 O2          5.3022    2.1819    2.7699 O.2       1 <0>        -0.4901
     37 O3          4.3127    0.9617   -0.0474 O.2       1 <0>        -0.5902
     38 O4          7.7705    4.4014   -1.3956 O.2       1 <0>        -0.5833
     39 H1          1.5486   13.4619   -1.5674 H         1 <0>         0.1320
     40 H2          2.4416   12.4225    0.5006 H         1 <0>         0.1324
     41 H3          1.0949   12.0609   -3.5639 H         1 <0>         0.1328
     42 H4          2.8813    9.9902    0.5771 H         1 <0>         0.1324
     43 H5          1.5311    9.6276   -3.4978 H         1 <0>         0.1434
     44 H6         -1.2478    1.4382    2.6861 H         1 <0>         0.0405
     45 H7         -0.5145    2.0336    4.1728 H         1 <0>         0.0421
     46 H8          1.6374    1.0154    3.6002 H         1 <0>         0.0362
     47 H9          0.3743   -0.2054    3.4883 H         1 <0>         0.0439
     48 H10        -0.7038    3.8062    2.4141 H         1 <0>         0.0350
     49 H11         0.9594    3.5381    2.9241 H         1 <0>         0.0428
     50 H12         1.9510   -0.3097    1.5585 H         1 <0>         0.0663
     51 H13         0.2884   -0.0125    1.0569 H         1 <0>         0.0466
     52 H14        -0.3828    2.4825    0.3884 H         1 <0>         0.0493
     53 H15         0.8670    3.7212    0.4787 H         1 <0>         0.0520
     54 H16         6.1203    4.5986   -4.8250 H         1 <0>         0.0915
     55 H17         7.5395    4.0162   -3.9259 H         1 <0>         0.0601
     56 H18         4.3839    9.4843   -3.2353 H         1 <0>         0.0688
     57 H19         3.2652    8.3026   -3.8819 H         1 <0>         0.0630
     58 H20         8.1249    6.2239   -3.2478 H         1 <0>         0.0807
     59 H21         7.4504    6.5803   -4.8390 H         1 <0>         0.0380
     60 H22         4.8852    7.0622   -4.8247 H         1 <0>         0.0484
     61 H23         5.9181    8.4662   -4.5637 H         1 <0>         0.0697
     62 H24         4.9753    3.9333   -2.8455 H         1 <0>         0.0843
     63 H25         1.7501    1.4622   -0.2331 H         1 <0>         0.0831
     64 H26         2.3479    7.7977   -0.4022 H         1 <0>         0.0704
     65 H27         1.7988    7.6502   -2.0594 H         1 <0>         0.0718
     66 H28         5.2579    4.9142    2.6804 H         1 <0>         0.0606
     67 H29         5.4809    5.7546    1.1500 H         1 <0>         0.0458
     68 H30         7.2000    6.0392    3.6534 H         1 <0>         0.0375
     69 H31         7.5258    6.8807    2.1417 H         1 <0>         0.0392
     70 H32         7.4599    3.7926    2.4354 H         1 <0>         0.0606
     71 H33         7.7645    4.6634    0.9347 H         1 <0>         0.0579
     72 H34         5.2908    8.0386    2.3228 H         1 <0>         0.0571
     73 H35         6.3225    8.3806    3.7198 H         1 <0>         0.0503
     74 H36         7.0421    2.3587    0.4881 H         1 <0>         0.0993
     75 H37         5.7856    8.6648   -1.2112 H         1 <0>         0.3700
     76 H38         4.6041    8.4681    0.0612 H         1 <0>         0.3660
     77 H39         4.0028    7.6695    4.3608 H         1 <0>         0.3465
     78 H40         4.9421    6.2118    4.5770 H         1 <0>         0.3446
     79 H41         2.8559    2.8605    2.0944 H         1 <0>         0.3148
     80 H42         4.7816    3.4809   -0.6931 H         1 <0>         0.3220
@<TRIPOS>BOND
     1    1    2 ar
     2    1    3 ar
     3    2    4 ar
     4    3    5 ar
     5    4    6 ar
     6    5    6 ar
     7    6   23 1
     8    7   22 1
     9    7   29 am
    10    7   35 2
    11    8    9 1
    12    8   28 1
    13    8   36 2
    14    9   33 am
    15    9   37 2
    16   10   20 1
    17   10   34 am
    18   10   38 2
    19   11   12 1
    20   11   13 1
    21   12   14 1
    22   13   15 1
    23   14   21 1
    24   15   21 1
    25   16   18 1
    26   16   20 1
    27   17   19 1
    28   17   22 1
    29   18   30 1
    30   19   30 1
    31   20   29 1
    32   21   33 1
    33   22   23 1
    34   22   31 1
    35   24   25 1
    36   24   26 1
    37   25   27 1
    38   26   28 1
    39   27   32 1
    40   28   34 1
    41   29   30 1
    42    1   39 1
    43    2   40 1
    44    3   41 1
    45    4   42 1
    46    5   43 1
    47   11   44 1
    48   11   45 1
    49   12   46 1
    50   12   47 1
    51   13   48 1
    52   13   49 1
    53   14   50 1
    54   14   51 1
    55   15   52 1
    56   15   53 1
    57   16   54 1
    58   16   55 1
    59   17   56 1
    60   17   57 1
    61   18   58 1
    62   18   59 1
    63   19   60 1
    64   19   61 1
    65   20   62 1
    66   21   63 1
    67   23   64 1
    68   23   65 1
    69   24   66 1
    70   24   67 1
    71   25   68 1
    72   25   69 1
    73   26   70 1
    74   26   71 1
    75   27   72 1
    76   27   73 1
    77   28   74 1
    78   31   75 1
    79   31   76 1
    80   32   77 1
    81   32   78 1
    82   33   79 1
    83   34   80 1
@<TRIPOS>MOLECULE
1a46_ligand_124
   80    83     0     0     0
SMALL
USER_CHARGES

mmff94s_NoEstat = 83.69
@<TRIPOS>ATOM
      1 C1         11.0121    9.2104   -7.9325 C.ar      1 <0>        -0.1300
      2 C2         11.5385    8.8832   -6.6829 C.ar      1 <0>        -0.1323
      3 C3          9.6345    9.1559   -8.1449 C.ar      1 <0>        -0.1309
      4 C4         10.6874    8.5015   -5.6458 C.ar      1 <0>        -0.1275
      5 C5          8.7834    8.7742   -7.1078 C.ar      1 <0>        -0.1272
      6 C6          9.3154    8.4495   -5.8650 C.ar      1 <0>        -0.0843
      7 C7          7.2411    6.0968   -3.6024 C.2       1 <0>         0.6709
      8 C8          5.2358    2.3798    1.5634 C.2       1 <0>         0.4867
      9 C9          5.6457    1.7076    2.8411 C.2       1 <0>         0.5883
     10 C10         6.5256    3.6321   -1.6689 C.2       1 <0>         0.6572
     11 C11         7.4984   -2.8604    2.5281 C.3       1 <0>        -0.0802
     12 C12         6.0870   -2.3778    2.8521 C.3       1 <0>        -0.0765
     13 C13         8.4450   -1.6988    2.2377 C.3       1 <0>        -0.0774
     14 C14         6.0898   -1.3509    3.9853 C.3       1 <0>        -0.0953
     15 C15         8.4424   -0.6737    3.3726 C.3       1 <0>        -0.0906
     16 C16         5.2113    3.0694   -3.7284 C.3       1 <0>        -0.0871
     17 C17         7.6012    6.0599   -6.1012 C.3       1 <0>        -0.0716
     18 C18         6.3446    2.7580   -4.7039 C.3       1 <0>         0.1333
     19 C19         6.8355    4.7264   -6.0536 C.3       1 <0>         0.1246
     20 C20         5.7868    4.1659   -2.8575 C.3       1 <0>         0.0606
     21 C21         7.0342   -0.1713    3.7178 C.3       1 <0>         0.1012
     22 C22         8.1773    6.5224   -4.7422 C.3       1 <0>         0.1554
     23 C23         8.4000    8.0389   -4.7494 C.3       1 <0>        -0.0356
     24 C24         8.0800    4.9598    0.7851 C.3       1 <0>        -0.0795
     25 C25         8.7880    6.0338    1.6192 C.3       1 <0>        -0.1203
     26 C26         6.9719    4.2276    1.5544 C.3       1 <0>        -0.0920
     27 C27         9.9095    6.7454    0.8629 C.3       1 <0>         0.1502
     28 C28         6.2906    3.1130    0.7514 C.3       1 <0>         0.0224
     29 N1          6.7674    4.7991   -3.7183 N.am      1 <0>        -0.3553
     30 N2          7.1280    4.0001   -4.8193 N.3       1 <0>        -0.4320
     31 N3          9.4643    5.8648   -4.4722 N.3       1 <0>        -0.9031
     32 N4          9.3732    7.4215   -0.3138 N.3       1 <0>        -0.9068
     33 N5          6.5118    0.6599    2.6310 N.am      1 <0>        -0.5526
     34 N6          5.7762    3.5917   -0.5046 N.am      1 <0>        -0.5576
     35 O1          6.9567    6.8465   -2.6685 O.2       1 <0>        -0.6710
     36 O2          4.0412    2.3628    1.2952 O.2       1 <0>        -0.4901
     37 O3          5.1730    2.1266    3.8850 O.2       1 <0>        -0.5902
     38 O4          7.6924    3.2783   -1.7917 O.2       1 <0>        -0.5833
     39 H1         11.6747    9.5075   -8.7400 H         1 <0>         0.1320
     40 H2         12.6111    8.9257   -6.5176 H         1 <0>         0.1324
     41 H3          9.2248    9.4105   -9.1180 H         1 <0>         0.1328
     42 H4         11.1066    8.2484   -4.6756 H         1 <0>         0.1324
     43 H5          7.7115    8.7346   -7.2826 H         1 <0>         0.1434
     44 H6          7.8861   -3.4409    3.3744 H         1 <0>         0.0405
     45 H7          7.4684   -3.5363    1.6660 H         1 <0>         0.0421
     46 H8          5.6358   -1.9383    1.9543 H         1 <0>         0.0362
     47 H9          5.4623   -3.2331    3.1340 H         1 <0>         0.0439
     48 H10         9.4616   -2.0812    2.0913 H         1 <0>         0.0350
     49 H11         8.1510   -1.2136    1.2991 H         1 <0>         0.0428
     50 H12         5.0674   -0.9870    4.1440 H         1 <0>         0.0663
     51 H13         6.3973   -1.8492    4.9135 H         1 <0>         0.0466
     52 H14         8.8852   -1.1330    4.2655 H         1 <0>         0.0493
     53 H15         9.0866    0.1701    3.0968 H         1 <0>         0.0520
     54 H16         4.3507    3.4578   -4.2870 H         1 <0>         0.0915
     55 H17         4.8908    2.1856   -3.1683 H         1 <0>         0.0601
     56 H18         8.4120    5.9885   -6.8390 H         1 <0>         0.0688
     57 H19         6.9149    6.8257   -6.4876 H         1 <0>         0.0630
     58 H20         6.9926    1.9855   -4.2725 H         1 <0>         0.0807
     59 H21         5.9735    2.3729   -5.6602 H         1 <0>         0.0380
     60 H22         5.7592    4.9288   -6.1435 H         1 <0>         0.0484
     61 H23         7.1185    4.1245   -6.9255 H         1 <0>         0.0697
     62 H24         5.0406    4.8864   -2.5107 H         1 <0>         0.0843
     63 H25         7.0767    0.4778    4.5987 H         1 <0>         0.0831
     64 H26         8.8151    8.3408   -3.7861 H         1 <0>         0.0704
     65 H27         7.4343    8.5386   -4.8464 H         1 <0>         0.0718
     66 H28         7.6494    5.4516   -0.0948 H         1 <0>         0.0606
     67 H29         8.8216    4.2418    0.4157 H         1 <0>         0.0458
     68 H30         8.0356    6.7709    1.9287 H         1 <0>         0.0375
     69 H31         9.1825    5.5824    2.5383 H         1 <0>         0.0392
     70 H32         6.2171    4.9575    1.8728 H         1 <0>         0.0606
     71 H33         7.3929    3.7874    2.4660 H         1 <0>         0.0579
     72 H34        10.6735    6.0252    0.5509 H         1 <0>         0.0571
     73 H35        10.3920    7.4923    1.5001 H         1 <0>         0.0503
     74 H36         7.0421    2.3587    0.4881 H         1 <0>         0.0993
     75 H37         9.5764    4.9261   -4.7778 H         1 <0>         0.3700
     76 H38        10.0811    6.3037   -3.8286 H         1 <0>         0.3660
     77 H39        10.0182    7.8250   -0.9589 H         1 <0>         0.3465
     78 H40         8.3988    7.6342   -0.3305 H         1 <0>         0.3446
     79 H41         6.8020    0.4535    1.6799 H         1 <0>         0.3148
     80 H42         4.8120    3.9176   -0.5391 H         1 <0>         0.3220
@<TRIPOS>BOND
     1    1    2 ar
     2    1    3 ar
     3    2    4 ar
     4    3    5 ar
     5    4    6 ar
     6    5    6 ar
     7    6   23 1
     8    7   22 1
     9    7   29 am
    10    7   35 2
    11    8    9 1
    12    8   28 1
    13    8   36 2
    14    9   33 am
    15    9   37 2
    16   10   20 1
    17   10   34 am
    18   10   38 2
    19   11   12 1
    20   11   13 1
    21   12   14 1
    22   13   15 1
    23   14   21 1
    24   15   21 1
    25   16   18 1
    26   16   20 1
    27   17   19 1
    28   17   22 1
    29   18   30 1
    30   19   30 1
    31   20   29 1
    32   21   33 1
    33   22   23 1
    34   22   31 1
    35   24   25 1
    36   24   26 1
    37   25   27 1
    38   26   28 1
    39   27   32 1
    40   28   34 1
    41   29   30 1
    42    1   39 1
    43    2   40 1
    44    3   41 1
    45    4   42 1
    46    5   43 1
    47   11   44 1
    48   11   45 1
    49   12   46 1
    50   12   47 1
    51   13   48 1
    52   13   49 1
    53   14   50 1
    54   14   51 1
    55   15   52 1
    56   15   53 1
    57   16   54 1
    58   16   55 1
    59   17   56 1
    60   17   57 1
    61   18   58 1
    62   18   59 1
    63   19   60 1
    64   19   61 1
    65   20   62 1
    66   21   63 1
    67   23   64 1
    68   23   65 1
    69   24   66 1
    70   24   67 1
    71   25   68 1
    72   25   69 1
    73   26   70 1
    74   26   71 1
    75   27   72 1
    76   27   73 1
    77   28   74 1
    78   31   75 1
    79   31   76 1
    80   32   77 1
    81   32   78 1
    82   33   79 1
    83   34   80 1
@<TRIPOS>MOLECULE
1a46_ligand_125
   80    83     0     0     0
SMALL
USER_CHARGES

mmff94s_NoEstat = 83.72
@<TRIPOS>ATOM
      1 C1         -4.2961    6.3604   -2.7495 C.ar      1 <0>        -0.1300
      2 C2         -3.8917    5.7888   -1.5431 C.ar      1 <0>        -0.1323
      3 C3         -3.4839    6.2539   -3.8786 C.ar      1 <0>        -0.1309
      4 C4         -2.6752    5.1109   -1.4657 C.ar      1 <0>        -0.1275
      5 C5         -2.2674    5.5759   -3.8012 C.ar      1 <0>        -0.1272
      6 C6         -1.8709    5.0088   -2.5952 C.ar      1 <0>        -0.0843
      7 C7          1.9202    4.4855   -2.0375 C.2       1 <0>         0.6709
      8 C8          5.2358    2.3798    1.5634 C.2       1 <0>         0.4867
      9 C9          4.9672    2.8271    2.9706 C.2       1 <0>         0.5883
     10 C10         4.7954    4.5647   -0.6048 C.2       1 <0>         0.6572
     11 C11         0.8921    5.4755    3.8517 C.3       1 <0>        -0.0802
     12 C12         2.0848    6.2070    3.2414 C.3       1 <0>        -0.0765
     13 C13         1.1817    3.9920    4.0643 C.3       1 <0>        -0.0774
     14 C14         3.3578    5.9888    4.0603 C.3       1 <0>        -0.0953
     15 C15         2.4567    3.7791    4.8816 C.3       1 <0>        -0.0906
     16 C16         5.1345    6.1376   -2.5274 C.3       1 <0>        -0.0871
     17 C17         0.6797    6.3873   -3.1418 C.3       1 <0>        -0.0716
     18 C18         4.2227    7.2889   -2.1078 C.3       1 <0>         0.1333
     19 C19         2.0578    7.0682   -3.2043 C.3       1 <0>         0.1246
     20 C20         4.4137    4.9104   -2.0113 C.3       1 <0>         0.0606
     21 C21         3.6721    4.5042    4.2884 C.3       1 <0>         0.1012
     22 C22         0.5786    5.2268   -2.1241 C.3       1 <0>         0.1554
     23 C23        -0.5623    4.2796   -2.5120 C.3       1 <0>        -0.0356
     24 C24         8.0800    4.9598    0.7851 C.3       1 <0>        -0.0795
     25 C25         8.7880    6.0338    1.6192 C.3       1 <0>        -0.1203
     26 C26         6.9719    4.2276    1.5544 C.3       1 <0>        -0.0920
     27 C27         9.9095    6.7454    0.8629 C.3       1 <0>         0.1502
     28 C28         6.2906    3.1130    0.7514 C.3       1 <0>         0.0224
     29 N1          3.0235    5.3233   -1.9852 N.am      1 <0>        -0.3553
     30 N2          2.8653    6.7208   -2.0365 N.3       1 <0>        -0.4320
     31 N3          0.3159    5.7420   -0.7724 N.3       1 <0>        -0.9031
     32 N4         10.5470    7.7366    1.7233 N.3       1 <0>        -0.9068
     33 N5          4.0751    3.8723    3.0302 N.am      1 <0>        -0.5526
     34 N6          5.7762    3.5917   -0.5046 N.am      1 <0>        -0.5576
     35 O1          1.9934    3.2573   -2.0040 O.2       1 <0>        -0.6710
     36 O2          4.5176    1.4899    1.1258 O.2       1 <0>        -0.4901
     37 O3          5.5575    2.2579    3.8741 O.2       1 <0>        -0.5902
     38 O4          4.2448    5.1367    0.3286 O.2       1 <0>        -0.5833
     39 H1         -5.2433    6.8883   -2.8098 H         1 <0>         0.1320
     40 H2         -4.5242    5.8718   -0.6641 H         1 <0>         0.1324
     41 H3         -3.7988    6.6991   -4.8178 H         1 <0>         0.1328
     42 H4         -2.3683    4.6687   -0.5215 H         1 <0>         0.1324
     43 H5         -1.6411    5.4981   -4.6860 H         1 <0>         0.1434
     44 H6          0.6380    5.9366    4.8142 H         1 <0>         0.0405
     45 H7          0.0168    5.5912    3.2026 H         1 <0>         0.0421
     46 H8          2.2406    5.8582    2.2134 H         1 <0>         0.0362
     47 H9          1.8664    7.2794    3.1820 H         1 <0>         0.0439
     48 H10         0.3347    3.5223    4.5772 H         1 <0>         0.0350
     49 H11         1.2777    3.4953    3.0912 H         1 <0>         0.0428
     50 H12         4.1990    6.4793    3.5556 H         1 <0>         0.0663
     51 H13         3.2407    6.4812    5.0341 H         1 <0>         0.0466
     52 H14         2.2879    4.1444    5.9026 H         1 <0>         0.0493
     53 H15         2.6596    2.7041    4.9584 H         1 <0>         0.0520
     54 H16         5.1868    6.0993   -3.6226 H         1 <0>         0.0915
     55 H17         6.1502    6.2483   -2.1355 H         1 <0>         0.0601
     56 H18        -0.0889    7.1398   -2.9187 H         1 <0>         0.0688
     57 H19         0.4458    6.0134   -4.1479 H         1 <0>         0.0630
     58 H20         4.5037    7.6265   -1.1030 H         1 <0>         0.0807
     59 H21         4.3115    8.1522   -2.7765 H         1 <0>         0.0380
     60 H22         2.5627    6.7687   -4.1331 H         1 <0>         0.0484
     61 H23         1.9139    8.1541   -3.2580 H         1 <0>         0.0697
     62 H24         4.5519    4.0254   -2.6387 H         1 <0>         0.0843
     63 H25         4.5294    4.4052    4.9624 H         1 <0>         0.0831
     64 H26        -0.6211    3.4755   -1.7762 H         1 <0>         0.0704
     65 H27        -0.3254    3.8127   -3.4698 H         1 <0>         0.0718
     66 H28         7.6494    5.4516   -0.0948 H         1 <0>         0.0606
     67 H29         8.8216    4.2418    0.4157 H         1 <0>         0.0458
     68 H30         8.0356    6.7709    1.9287 H         1 <0>         0.0375
     69 H31         9.1825    5.5824    2.5383 H         1 <0>         0.0392
     70 H32         6.2171    4.9575    1.8728 H         1 <0>         0.0606
     71 H33         7.3929    3.7874    2.4660 H         1 <0>         0.0579
     72 H34         9.5108    7.2416   -0.0285 H         1 <0>         0.0571
     73 H35        10.6706    6.0303    0.5375 H         1 <0>         0.0503
     74 H36         7.0421    2.3587    0.4881 H         1 <0>         0.0993
     75 H37         0.7364    6.6054   -0.5173 H         1 <0>         0.3700
     76 H38        -0.0926    5.1211   -0.1128 H         1 <0>         0.3660
     77 H39        11.2163    8.3531    1.3147 H         1 <0>         0.3465
     78 H40        10.4498    7.6340    2.7108 H         1 <0>         0.3446
     79 H41         3.6782    4.2214    2.1629 H         1 <0>         0.3148
     80 H42         6.1527    3.1949   -1.3636 H         1 <0>         0.3220
@<TRIPOS>BOND
     1    1    2 ar
     2    1    3 ar
     3    2    4 ar
     4    3    5 ar
     5    4    6 ar
     6    5    6 ar
     7    6   23 1
     8    7   22 1
     9    7   29 am
    10    7   35 2
    11    8    9 1
    12    8   28 1
    13    8   36 2
    14    9   33 am
    15    9   37 2
    16   10   20 1
    17   10   34 am
    18   10   38 2
    19   11   12 1
    20   11   13 1
    21   12   14 1
    22   13   15 1
    23   14   21 1
    24   15   21 1
    25   16   18 1
    26   16   20 1
    27   17   19 1
    28   17   22 1
    29   18   30 1
    30   19   30 1
    31   20   29 1
    32   21   33 1
    33   22   23 1
    34   22   31 1
    35   24   25 1
    36   24   26 1
    37   25   27 1
    38   26   28 1
    39   27   32 1
    40   28   34 1
    41   29   30 1
    42    1   39 1
    43    2   40 1
    44    3   41 1
    45    4   42 1
    46    5   43 1
    47   11   44 1
    48   11   45 1
    49   12   46 1
    50   12   47 1
    51   13   48 1
    52   13   49 1
    53   14   50 1
    54   14   51 1
    55   15   52 1
    56   15   53 1
    57   16   54 1
    58   16   55 1
    59   17   56 1
    60   17   57 1
    61   18   58 1
    62   18   59 1
    63   19   60 1
    64   19   61 1
    65   20   62 1
    66   21   63 1
    67   23   64 1
    68   23   65 1
    69   24   66 1
    70   24   67 1
    71   25   68 1
    72   25   69 1
    73   26   70 1
    74   26   71 1
    75   27   72 1
    76   27   73 1
    77   28   74 1
    78   31   75 1
    79   31   76 1
    80   32   77 1
    81   32   78 1
    82   33   79 1
    83   34   80 1
@<TRIPOS>MOLECULE
1a46_ligand_126
   80    83     0     0     0
SMALL
USER_CHARGES

mmff94s_NoEstat = 83.74
@<TRIPOS>ATOM
      1 C1          8.7841   12.3584   -5.8200 C.ar      1 <0>        -0.1300
      2 C2          9.2413   12.0197   -4.5466 C.ar      1 <0>        -0.1323
      3 C3          7.6186   11.7776   -6.3200 C.ar      1 <0>        -0.1309
      4 C4          8.5332   11.1000   -3.7731 C.ar      1 <0>        -0.1275
      5 C5          6.9105   10.8578   -5.5465 C.ar      1 <0>        -0.1272
      6 C6          7.3724   10.5251   -4.2781 C.ar      1 <0>        -0.0843
      7 C7          6.3227    7.0882   -2.8484 C.2       1 <0>         0.6709
      8 C8          5.2358    2.3798    1.5634 C.2       1 <0>         0.4867
      9 C9          5.6522    1.1980    2.3894 C.2       1 <0>         0.5883
     10 C10         6.5648    4.1956   -1.4701 C.2       1 <0>         0.6572
     11 C11         4.0322    0.9047    7.0463 C.3       1 <0>        -0.0802
     12 C12         5.2027    1.8445    6.7696 C.3       1 <0>        -0.0765
     13 C13         3.5408    0.2172    5.7752 C.3       1 <0>        -0.0774
     14 C14         6.3378    1.1287    6.0363 C.3       1 <0>        -0.0953
     15 C15         4.6799   -0.4951    5.0445 C.3       1 <0>        -0.0906
     16 C16         5.9150    3.5956   -3.8160 C.3       1 <0>        -0.0871
     17 C17         6.9686    7.7509   -5.1976 C.3       1 <0>        -0.0716
     18 C18         7.1782    4.0100   -4.5681 C.3       1 <0>         0.1333
     19 C19         6.8896    6.2440   -5.4973 C.3       1 <0>         0.1246
     20 C20         5.8189    4.6139   -2.6998 C.3       1 <0>         0.0606
     21 C21         5.8700    0.4288    4.7533 C.3       1 <0>         0.1012
     22 C22         7.0990    8.1048   -3.6974 C.3       1 <0>         0.1554
     23 C23         6.6107    9.5357   -3.4460 C.3       1 <0>        -0.0356
     24 C24         6.0158    5.3379    2.0114 C.3       1 <0>        -0.0795
     25 C25         6.7209    6.4716    2.7653 C.3       1 <0>        -0.1203
     26 C26         6.9719    4.2276    1.5544 C.3       1 <0>        -0.0920
     27 C27         5.7742    7.5909    3.1979 C.3       1 <0>         0.1502
     28 C28         6.2906    3.1130    0.7514 C.3       1 <0>         0.0224
     29 N1          6.5058    5.7713   -3.2406 N.am      1 <0>        -0.3553
     30 N2          7.3227    5.4587   -4.3431 N.3       1 <0>        -0.4320
     31 N3          8.4993    8.0079   -3.2602 N.3       1 <0>        -0.9031
     32 N4          6.5168    8.6391    3.8900 N.3       1 <0>        -0.9068
     33 N5          5.5058    1.4204    3.7389 N.am      1 <0>        -0.5526
     34 N6          5.7762    3.5917   -0.5046 N.am      1 <0>        -0.5576
     35 O1          5.6162    7.4259   -1.8987 O.2       1 <0>        -0.6710
     36 O2          4.0675    2.7325    1.6631 O.2       1 <0>        -0.4901
     37 O3          6.0787    0.2146    1.8066 O.2       1 <0>        -0.5902
     38 O4          7.7705    4.4014   -1.3956 O.2       1 <0>        -0.5833
     39 H1          9.3355   13.0745   -6.4223 H         1 <0>         0.1320
     40 H2         10.1488   12.4721   -4.1574 H         1 <0>         0.1324
     41 H3          7.2628   12.0413   -7.3117 H         1 <0>         0.1328
     42 H4          8.8970   10.8421   -2.7820 H         1 <0>         0.1324
     43 H5          6.0035   10.4103   -5.9443 H         1 <0>         0.1434
     44 H6          4.3425    0.1437    7.7730 H         1 <0>         0.0405
     45 H7          3.2093    1.4651    7.5043 H         1 <0>         0.0421
     46 H8          4.8545    2.6962    6.1728 H         1 <0>         0.0362
     47 H9          5.5771    2.2527    7.7153 H         1 <0>         0.0439
     48 H10         2.7581   -0.5070    6.0284 H         1 <0>         0.0350
     49 H11         3.0820    0.9603    5.1118 H         1 <0>         0.0428
     50 H12         7.1291    1.8519    5.8044 H         1 <0>         0.0663
     51 H13         6.7776    0.3814    6.7089 H         1 <0>         0.0466
     52 H14         5.0244   -1.3358    5.6600 H         1 <0>         0.0493
     53 H15         4.2965   -0.9219    4.1098 H         1 <0>         0.0520
     54 H16         5.0489    3.6975   -4.4816 H         1 <0>         0.0915
     55 H17         5.9620    2.5605   -3.4641 H         1 <0>         0.0601
     56 H18         7.8089    8.1894   -5.7531 H         1 <0>         0.0688
     57 H19         6.0643    8.2210   -5.6074 H         1 <0>         0.0630
     58 H20         8.0462    3.5082   -4.1236 H         1 <0>         0.0807
     59 H21         7.1438    3.7229   -5.6248 H         1 <0>         0.0380
     60 H22         5.8587    5.9894   -5.7800 H         1 <0>         0.0484
     61 H23         7.5203    6.0225   -6.3666 H         1 <0>         0.0697
     62 H24         4.7909    4.8594   -2.4187 H         1 <0>         0.0843
     63 H25         6.6942   -0.1508    4.3245 H         1 <0>         0.0831
     64 H26         6.7207    9.7666   -2.3849 H         1 <0>         0.0704
     65 H27         5.5439    9.5911   -3.6710 H         1 <0>         0.0718
     66 H28         5.2579    4.9142    2.6804 H         1 <0>         0.0606
     67 H29         5.4809    5.7546    1.1500 H         1 <0>         0.0458
     68 H30         7.2000    6.0392    3.6534 H         1 <0>         0.0375
     69 H31         7.5258    6.8807    2.1417 H         1 <0>         0.0392
     70 H32         7.4599    3.7926    2.4354 H         1 <0>         0.0606
     71 H33         7.7645    4.6634    0.9347 H         1 <0>         0.0579
     72 H34         4.9986    7.1962    3.8630 H         1 <0>         0.0571
     73 H35         5.2784    8.0349    2.3297 H         1 <0>         0.0503
     74 H36         7.0421    2.3587    0.4881 H         1 <0>         0.0993
     75 H37         9.0611    7.2946   -3.6639 H         1 <0>         0.3700
     76 H38         8.7654    8.5137   -2.4473 H         1 <0>         0.3660
     77 H39         5.9996    9.3711    4.3277 H         1 <0>         0.3465
     78 H40         7.4997    8.7018    3.7315 H         1 <0>         0.3446
     79 H41         5.1282    2.3120    4.0455 H         1 <0>         0.3148
     80 H42         4.7816    3.4809   -0.6931 H         1 <0>         0.3220
@<TRIPOS>BOND
     1    1    2 ar
     2    1    3 ar
     3    2    4 ar
     4    3    5 ar
     5    4    6 ar
     6    5    6 ar
     7    6   23 1
     8    7   22 1
     9    7   29 am
    10    7   35 2
    11    8    9 1
    12    8   28 1
    13    8   36 2
    14    9   33 am
    15    9   37 2
    16   10   20 1
    17   10   34 am
    18   10   38 2
    19   11   12 1
    20   11   13 1
    21   12   14 1
    22   13   15 1
    23   14   21 1
    24   15   21 1
    25   16   18 1
    26   16   20 1
    27   17   19 1
    28   17   22 1
    29   18   30 1
    30   19   30 1
    31   20   29 1
    32   21   33 1
    33   22   23 1
    34   22   31 1
    35   24   25 1
    36   24   26 1
    37   25   27 1
    38   26   28 1
    39   27   32 1
    40   28   34 1
    41   29   30 1
    42    1   39 1
    43    2   40 1
    44    3   41 1
    45    4   42 1
    46    5   43 1
    47   11   44 1
    48   11   45 1
    49   12   46 1
    50   12   47 1
    51   13   48 1
    52   13   49 1
    53   14   50 1
    54   14   51 1
    55   15   52 1
    56   15   53 1
    57   16   54 1
    58   16   55 1
    59   17   56 1
    60   17   57 1
    61   18   58 1
    62   18   59 1
    63   19   60 1
    64   19   61 1
    65   20   62 1
    66   21   63 1
    67   23   64 1
    68   23   65 1
    69   24   66 1
    70   24   67 1
    71   25   68 1
    72   25   69 1
    73   26   70 1
    74   26   71 1
    75   27   72 1
    76   27   73 1
    77   28   74 1
    78   31   75 1
    79   31   76 1
    80   32   77 1
    81   32   78 1
    82   33   79 1
    83   34   80 1
@<TRIPOS>MOLECULE
1a46_ligand_127
   80    83     0     0     0
SMALL
USER_CHARGES

mmff94s_NoEstat = 83.75
@<TRIPOS>ATOM
      1 C1         -6.8775    5.0901  -14.7309 C.ar      1 <0>        -0.1300
      2 C2         -5.5917    5.6294  -14.7709 C.ar      1 <0>        -0.1323
      3 C3         -7.3842    4.5832  -13.5342 C.ar      1 <0>        -0.1309
      4 C4         -4.8126    5.6616  -13.6144 C.ar      1 <0>        -0.1275
      5 C5         -6.6051    4.6154  -12.3777 C.ar      1 <0>        -0.1272
      6 C6         -5.3244    5.1544  -12.4253 C.ar      1 <0>        -0.0843
      7 C7         -2.7863    3.9453   -9.7694 C.2       1 <0>         0.6709
      8 C8          2.7796    3.2097   -6.1637 C.2       1 <0>         0.4867
      9 C9          4.2189    2.8058   -6.2975 C.2       1 <0>         0.5883
     10 C10        -0.0591    2.8141   -8.5012 C.2       1 <0>         0.6572
     11 C11         9.2573    4.7069   -5.8336 C.3       1 <0>        -0.0802
     12 C12         8.6163    4.9290   -7.2006 C.3       1 <0>        -0.0765
     13 C13         8.6852    3.4756   -5.1367 C.3       1 <0>        -0.0774
     14 C14         7.0930    4.9958   -7.1046 C.3       1 <0>        -0.0953
     15 C15         7.1621    3.5412   -5.0378 C.3       1 <0>        -0.0906
     16 C16        -1.6498    0.9246   -8.0710 C.3       1 <0>        -0.0871
     17 C17        -4.5618    2.6685  -11.0314 C.3       1 <0>        -0.0716
     18 C18        -1.8952    0.4385   -9.4981 C.3       1 <0>         0.1333
     19 C19        -3.9477    1.4257  -10.3641 C.3       1 <0>         0.1246
     20 C20        -1.4789    2.4202   -8.2321 C.3       1 <0>         0.0606
     21 C21         6.5220    3.7522   -6.4143 C.3       1 <0>         0.1012
     22 C22        -3.6459    3.9150  -11.0410 C.3       1 <0>         0.1554
     23 C23        -4.4863    5.1891  -11.1812 C.3       1 <0>        -0.0356
     24 C24         1.5857    6.0302   -6.5865 C.3       1 <0>        -0.0795
     25 C25         1.6811    7.5259   -6.9095 C.3       1 <0>        -0.1203
     26 C26         2.1570    5.1335   -7.6933 C.3       1 <0>        -0.0920
     27 C27         1.0885    8.4192   -5.8200 C.3       1 <0>         0.1502
     28 C28         2.0196    3.6328   -7.4097 C.3       1 <0>         0.0224
     29 N1         -2.2374    2.7178   -9.4321 N.am      1 <0>        -0.3553
     30 N2         -2.5018    1.5760  -10.2111 N.3       1 <0>        -0.4320
     31 N3         -2.6997    3.8562  -12.1647 N.3       1 <0>        -0.9031
     32 N4          1.8018    8.2205   -4.5627 N.3       1 <0>        -0.9068
     33 N5          5.0731    3.8835   -6.2736 N.am      1 <0>        -0.5526
     34 N6          0.6426    3.2153   -7.3763 N.am      1 <0>        -0.5576
     35 O1         -2.5986    4.9773   -9.1254 O.2       1 <0>        -0.6710
     36 O2          2.3266    3.2509   -5.0269 O.2       1 <0>        -0.4901
     37 O3          4.4699    1.6191   -6.4296 O.2       1 <0>        -0.5902
     38 O4          0.3766    2.7593   -9.6452 O.2       1 <0>        -0.5833
     39 H1         -7.4841    5.0650  -15.6314 H         1 <0>         0.1320
     40 H2         -5.1973    6.0241  -15.7027 H         1 <0>         0.1324
     41 H3         -8.3853    4.1632  -13.5032 H         1 <0>         0.1328
     42 H4         -3.8120    6.0837  -13.6551 H         1 <0>         0.1324
     43 H5         -7.0082    4.2181  -11.4499 H         1 <0>         0.1434
     44 H6         10.3413    4.5952   -5.9483 H         1 <0>         0.0405
     45 H7          9.0911    5.5908   -5.2056 H         1 <0>         0.0421
     46 H8          8.9988    5.8570   -7.6405 H         1 <0>         0.0362
     47 H9          8.9030    4.1132   -7.8755 H         1 <0>         0.0439
     48 H10         8.9758    2.5740   -5.6898 H         1 <0>         0.0350
     49 H11         9.1159    3.3871   -4.1329 H         1 <0>         0.0428
     50 H12         6.8020    5.8988   -6.5518 H         1 <0>         0.0663
     51 H13         6.6651    5.0961   -8.1095 H         1 <0>         0.0466
     52 H14         6.7827    2.6164   -4.5863 H         1 <0>         0.0493
     53 H15         6.8754    4.3573   -4.3615 H         1 <0>         0.0520
     54 H16        -2.5391    0.7200   -7.4620 H         1 <0>         0.0915
     55 H17        -0.7905    0.4314   -7.6064 H         1 <0>         0.0601
     56 H18        -4.8571    2.4214  -12.0603 H         1 <0>         0.0688
     57 H19        -5.4956    2.9043  -10.5031 H         1 <0>         0.0630
     58 H20        -0.9338    0.2117   -9.9745 H         1 <0>         0.0807
     59 H21        -2.4949   -0.4779   -9.5259 H         1 <0>         0.0380
     60 H22        -4.4307    1.2677   -9.3899 H         1 <0>         0.0484
     61 H23        -4.1761    0.5456  -10.9773 H         1 <0>         0.0697
     62 H24        -1.8462    2.9971   -7.3786 H         1 <0>         0.0843
     63 H25         6.6911    2.8692   -7.0414 H         1 <0>         0.0831
     64 H26        -3.8200    6.0535  -11.1955 H         1 <0>         0.0704
     65 H27        -5.1199    5.2949  -10.2986 H         1 <0>         0.0718
     66 H28         2.1358    5.8550   -5.6547 H         1 <0>         0.0606
     67 H29         0.5392    5.7688   -6.3906 H         1 <0>         0.0458
     68 H30         2.7419    7.7748   -7.0444 H         1 <0>         0.0375
     69 H31         1.1870    7.7255   -7.8687 H         1 <0>         0.0392
     70 H32         3.2164    5.3787   -7.8393 H         1 <0>         0.0606
     71 H33         1.6466    5.3535   -8.6384 H         1 <0>         0.0579
     72 H34         0.0275    8.1885   -5.6755 H         1 <0>         0.0571
     73 H35         1.1682    9.4739   -6.0992 H         1 <0>         0.0503
     74 H36         2.4714    3.0747   -8.2388 H         1 <0>         0.0993
     75 H37        -2.3461    2.9648  -12.4248 H         1 <0>         0.3700
     76 H38        -2.3015    4.7109  -12.4784 H         1 <0>         0.3660
     77 H39         1.4387    8.6562   -3.7421 H         1 <0>         0.3465
     78 H40         2.7216    7.8360   -4.5996 H         1 <0>         0.3446
     79 H41         4.6795    4.8120   -6.1527 H         1 <0>         0.3148
     80 H42         0.1596    3.2148   -6.4798 H         1 <0>         0.3220
@<TRIPOS>BOND
     1    1    2 ar
     2    1    3 ar
     3    2    4 ar
     4    3    5 ar
     5    4    6 ar
     6    5    6 ar
     7    6   23 1
     8    7   22 1
     9    7   29 am
    10    7   35 2
    11    8    9 1
    12    8   28 1
    13    8   36 2
    14    9   33 am
    15    9   37 2
    16   10   20 1
    17   10   34 am
    18   10   38 2
    19   11   12 1
    20   11   13 1
    21   12   14 1
    22   13   15 1
    23   14   21 1
    24   15   21 1
    25   16   18 1
    26   16   20 1
    27   17   19 1
    28   17   22 1
    29   18   30 1
    30   19   30 1
    31   20   29 1
    32   21   33 1
    33   22   23 1
    34   22   31 1
    35   24   25 1
    36   24   26 1
    37   25   27 1
    38   26   28 1
    39   27   32 1
    40   28   34 1
    41   29   30 1
    42    1   39 1
    43    2   40 1
    44    3   41 1
    45    4   42 1
    46    5   43 1
    47   11   44 1
    48   11   45 1
    49   12   46 1
    50   12   47 1
    51   13   48 1
    52   13   49 1
    53   14   50 1
    54   14   51 1
    55   15   52 1
    56   15   53 1
    57   16   54 1
    58   16   55 1
    59   17   56 1
    60   17   57 1
    61   18   58 1
    62   18   59 1
    63   19   60 1
    64   19   61 1
    65   20   62 1
    66   21   63 1
    67   23   64 1
    68   23   65 1
    69   24   66 1
    70   24   67 1
    71   25   68 1
    72   25   69 1
    73   26   70 1
    74   26   71 1
    75   27   72 1
    76   27   73 1
    77   28   74 1
    78   31   75 1
    79   31   76 1
    80   32   77 1
    81   32   78 1
    82   33   79 1
    83   34   80 1
@<TRIPOS>MOLECULE
1a46_ligand_128
   80    83     0     0     0
SMALL
USER_CHARGES

mmff94s_NoEstat = 83.77
@<TRIPOS>ATOM
      1 C1         -6.8775    5.0901  -14.7309 C.ar      1 <0>        -0.1300
      2 C2         -5.5917    5.6294  -14.7709 C.ar      1 <0>        -0.1323
      3 C3         -7.3842    4.5832  -13.5342 C.ar      1 <0>        -0.1309
      4 C4         -4.8126    5.6616  -13.6144 C.ar      1 <0>        -0.1275
      5 C5         -6.6051    4.6154  -12.3777 C.ar      1 <0>        -0.1272
      6 C6         -5.3244    5.1544  -12.4253 C.ar      1 <0>        -0.0843
      7 C7         -2.7863    3.9453   -9.7694 C.2       1 <0>         0.6709
      8 C8          2.7796    3.2097   -6.1637 C.2       1 <0>         0.4867
      9 C9          2.0233    2.5606   -5.0416 C.2       1 <0>         0.5883
     10 C10        -0.0591    2.8141   -8.5012 C.2       1 <0>         0.6572
     11 C11        -1.8951   -1.0364   -4.0810 C.3       1 <0>        -0.0802
     12 C12        -1.8777    0.4244   -3.6398 C.3       1 <0>        -0.0765
     13 C13        -0.4885   -1.6258   -4.1333 C.3       1 <0>        -0.0774
     14 C14        -0.9490    1.2660   -4.5136 C.3       1 <0>        -0.0953
     15 C15         0.4415   -0.7869   -5.0083 C.3       1 <0>        -0.0906
     16 C16        -1.6498    0.9246   -8.0710 C.3       1 <0>        -0.0871
     17 C17        -4.5618    2.6685  -11.0314 C.3       1 <0>        -0.0716
     18 C18        -1.8952    0.4385   -9.4981 C.3       1 <0>         0.1333
     19 C19        -3.9477    1.4257  -10.3641 C.3       1 <0>         0.1246
     20 C20        -1.4789    2.4202   -8.2321 C.3       1 <0>         0.0606
     21 C21         0.4653    0.6767   -4.5542 C.3       1 <0>         0.1012
     22 C22        -3.6459    3.9150  -11.0410 C.3       1 <0>         0.1554
     23 C23        -4.4863    5.1891  -11.1812 C.3       1 <0>        -0.0356
     24 C24         1.5857    6.0302   -6.5865 C.3       1 <0>        -0.0795
     25 C25         1.6811    7.5259   -6.9095 C.3       1 <0>        -0.1203
     26 C26         2.1570    5.1335   -7.6933 C.3       1 <0>        -0.0920
     27 C27         1.0885    8.4192   -5.8200 C.3       1 <0>         0.1502
     28 C28         2.0196    3.6328   -7.4097 C.3       1 <0>         0.0224
     29 N1         -2.2374    2.7178   -9.4321 N.am      1 <0>        -0.3553
     30 N2         -2.5018    1.5760  -10.2111 N.3       1 <0>        -0.4320
     31 N3         -2.6997    3.8562  -12.1647 N.3       1 <0>        -0.9031
     32 N4          1.1980    9.8225   -6.2046 N.3       1 <0>        -0.9068
     33 N5          1.3052    1.4630   -5.4557 N.am      1 <0>        -0.5526
     34 N6          0.6426    3.2153   -7.3763 N.am      1 <0>        -0.5576
     35 O1         -2.5986    4.9773   -9.1254 O.2       1 <0>        -0.6710
     36 O2          3.9949    3.2835   -6.0334 O.2       1 <0>        -0.4901
     37 O3          2.1023    3.0632   -3.9326 O.2       1 <0>        -0.5902
     38 O4          0.3766    2.7593   -9.6452 O.2       1 <0>        -0.5833
     39 H1         -7.4841    5.0650  -15.6314 H         1 <0>         0.1320
     40 H2         -5.1973    6.0241  -15.7027 H         1 <0>         0.1324
     41 H3         -8.3853    4.1632  -13.5032 H         1 <0>         0.1328
     42 H4         -3.8120    6.0837  -13.6551 H         1 <0>         0.1324
     43 H5         -7.0082    4.2181  -11.4499 H         1 <0>         0.1434
     44 H6         -2.5149   -1.6221   -3.3928 H         1 <0>         0.0405
     45 H7         -2.3587   -1.1117   -5.0724 H         1 <0>         0.0421
     46 H8         -2.8933    0.8339   -3.6807 H         1 <0>         0.0362
     47 H9         -1.5496    0.4867   -2.5949 H         1 <0>         0.0439
     48 H10        -0.0783   -1.6844   -3.1176 H         1 <0>         0.0350
     49 H11        -0.5326   -2.6504   -4.5196 H         1 <0>         0.0428
     50 H12        -1.3600    1.3256   -5.5300 H         1 <0>         0.0663
     51 H13        -0.9158    2.2936   -4.1318 H         1 <0>         0.0466
     52 H14         1.4546   -1.2057   -4.9751 H         1 <0>         0.0493
     53 H15         0.1133   -0.8500   -6.0542 H         1 <0>         0.0520
     54 H16        -2.5391    0.7200   -7.4620 H         1 <0>         0.0915
     55 H17        -0.7905    0.4314   -7.6064 H         1 <0>         0.0601
     56 H18        -4.8571    2.4214  -12.0603 H         1 <0>         0.0688
     57 H19        -5.4956    2.9043  -10.5031 H         1 <0>         0.0630
     58 H20        -0.9338    0.2117   -9.9745 H         1 <0>         0.0807
     59 H21        -2.4949   -0.4779   -9.5259 H         1 <0>         0.0380
     60 H22        -4.4307    1.2677   -9.3899 H         1 <0>         0.0484
     61 H23        -4.1761    0.5456  -10.9773 H         1 <0>         0.0697
     62 H24        -1.8462    2.9971   -7.3786 H         1 <0>         0.0843
     63 H25         0.9263    0.7500   -3.5624 H         1 <0>         0.0831
     64 H26        -3.8200    6.0535  -11.1955 H         1 <0>         0.0704
     65 H27        -5.1199    5.2949  -10.2986 H         1 <0>         0.0718
     66 H28         2.1358    5.8550   -5.6547 H         1 <0>         0.0606
     67 H29         0.5392    5.7688   -6.3906 H         1 <0>         0.0458
     68 H30         2.7419    7.7748   -7.0444 H         1 <0>         0.0375
     69 H31         1.1870    7.7255   -7.8687 H         1 <0>         0.0392
     70 H32         3.2164    5.3787   -7.8393 H         1 <0>         0.0606
     71 H33         1.6466    5.3535   -8.6384 H         1 <0>         0.0579
     72 H34         1.6137    8.2608   -4.8719 H         1 <0>         0.0571
     73 H35         0.0315    8.1861   -5.6617 H         1 <0>         0.0503
     74 H36         2.4714    3.0747   -8.2388 H         1 <0>         0.0993
     75 H37        -2.3461    2.9648  -12.4248 H         1 <0>         0.3700
     76 H38        -2.3015    4.7109  -12.4784 H         1 <0>         0.3660
     77 H39         0.9557   10.5154   -5.5293 H         1 <0>         0.3465
     78 H40         1.3102   10.0373   -7.1723 H         1 <0>         0.3446
     79 H41         1.3611    1.1865   -6.4314 H         1 <0>         0.3148
     80 H42         0.1596    3.2148   -6.4798 H         1 <0>         0.3220
@<TRIPOS>BOND
     1    1    2 ar
     2    1    3 ar
     3    2    4 ar
     4    3    5 ar
     5    4    6 ar
     6    5    6 ar
     7    6   23 1
     8    7   22 1
     9    7   29 am
    10    7   35 2
    11    8    9 1
    12    8   28 1
    13    8   36 2
    14    9   33 am
    15    9   37 2
    16   10   20 1
    17   10   34 am
    18   10   38 2
    19   11   12 1
    20   11   13 1
    21   12   14 1
    22   13   15 1
    23   14   21 1
    24   15   21 1
    25   16   18 1
    26   16   20 1
    27   17   19 1
    28   17   22 1
    29   18   30 1
    30   19   30 1
    31   20   29 1
    32   21   33 1
    33   22   23 1
    34   22   31 1
    35   24   25 1
    36   24   26 1
    37   25   27 1
    38   26   28 1
    39   27   32 1
    40   28   34 1
    41   29   30 1
    42    1   39 1
    43    2   40 1
    44    3   41 1
    45    4   42 1
    46    5   43 1
    47   11   44 1
    48   11   45 1
    49   12   46 1
    50   12   47 1
    51   13   48 1
    52   13   49 1
    53   14   50 1
    54   14   51 1
    55   15   52 1
    56   15   53 1
    57   16   54 1
    58   16   55 1
    59   17   56 1
    60   17   57 1
    61   18   58 1
    62   18   59 1
    63   19   60 1
    64   19   61 1
    65   20   62 1
    66   21   63 1
    67   23   64 1
    68   23   65 1
    69   24   66 1
    70   24   67 1
    71   25   68 1
    72   25   69 1
    73   26   70 1
    74   26   71 1
    75   27   72 1
    76   27   73 1
    77   28   74 1
    78   31   75 1
    79   31   76 1
    80   32   77 1
    81   32   78 1
    82   33   79 1
    83   34   80 1
@<TRIPOS>MOLECULE
1a46_ligand_129
   80    83     0     0     0
SMALL
USER_CHARGES

mmff94s_NoEstat = 83.80
@<TRIPOS>ATOM
      1 C1         -7.7455    8.1925  -11.7378 C.ar      1 <0>        -0.1300
      2 C2         -6.4538    8.7176  -11.7053 C.ar      1 <0>        -0.1323
      3 C3         -8.1013    7.1613  -10.8684 C.ar      1 <0>        -0.1309
      4 C4         -5.5176    8.2116  -10.8036 C.ar      1 <0>        -0.1275
      5 C5         -7.1651    6.6552   -9.9666 C.ar      1 <0>        -0.1272
      6 C6         -5.8794    7.1836   -9.9401 C.ar      1 <0>        -0.0843
      7 C7         -3.0518    4.9149   -8.5929 C.2       1 <0>         0.6709
      8 C8          2.7796    3.2097   -6.1637 C.2       1 <0>         0.4867
      9 C9          2.2829    2.0299   -5.3801 C.2       1 <0>         0.5883
     10 C10        -0.2306    3.3845   -8.4382 C.2       1 <0>         0.6572
     11 C11         1.5839   -3.3211   -5.6849 C.3       1 <0>        -0.0802
     12 C12         2.3480   -2.5670   -4.6002 C.3       1 <0>        -0.0765
     13 C13         0.4244   -2.4952   -6.2347 C.3       1 <0>        -0.0774
     14 C14         2.8173   -1.1982   -5.0901 C.3       1 <0>        -0.0953
     15 C15         0.8909   -1.1259   -6.7260 C.3       1 <0>        -0.0906
     16 C16        -1.8342    1.4799   -8.7324 C.3       1 <0>        -0.0871
     17 C17        -5.0487    4.3542  -10.0327 C.3       1 <0>        -0.0716
     18 C18        -2.3033    1.7312  -10.1641 C.3       1 <0>         0.1333
     19 C19        -4.4074    2.9598  -10.1390 C.3       1 <0>         0.1246
     20 C20        -1.6152    2.8736   -8.1831 C.3       1 <0>         0.0606
     21 C21         1.6479   -0.3676   -5.6301 C.3       1 <0>         0.1012
     22 C22        -4.0838    5.4758   -9.5814 C.3       1 <0>         0.1554
     23 C23        -4.8724    6.6393   -8.9701 C.3       1 <0>        -0.0356
     24 C24         1.5857    6.0302   -6.5865 C.3       1 <0>        -0.0795
     25 C25         1.6811    7.5259   -6.9095 C.3       1 <0>        -0.1203
     26 C26         2.1570    5.1335   -7.6933 C.3       1 <0>        -0.0920
     27 C27         3.1174    8.0140   -7.0965 C.3       1 <0>         0.1502
     28 C28         2.0196    3.6328   -7.4097 C.3       1 <0>         0.0224
     29 N1         -2.5211    3.6904   -8.9681 N.am      1 <0>        -0.3553
     30 N2         -2.9489    3.0553  -10.1488 N.3       1 <0>        -0.4320
     31 N3         -3.3108    5.9870  -10.7228 N.3       1 <0>        -0.9031
     32 N4          3.1298    9.4451   -7.3814 N.3       1 <0>        -0.9068
     33 N5          2.1424    0.9032   -6.1564 N.am      1 <0>        -0.5526
     34 N6          0.6426    3.2153   -7.3763 N.am      1 <0>        -0.5576
     35 O1         -2.7244    5.5164   -7.5701 O.2       1 <0>        -0.6710
     36 O2          3.8302    3.7133   -5.7870 O.2       1 <0>        -0.4901
     37 O3          2.0451    2.1901   -4.1942 O.2       1 <0>        -0.5902
     38 O4          0.0350    3.8958   -9.5198 O.2       1 <0>        -0.5833
     39 H1         -8.4745    8.5865  -12.4399 H         1 <0>         0.1320
     40 H2         -6.1769    9.5206  -12.3823 H         1 <0>         0.1324
     41 H3         -9.1071    6.7523  -10.8939 H         1 <0>         0.1328
     42 H4         -4.5135    8.6269  -10.7854 H         1 <0>         0.1324
     43 H5         -7.4512    5.8517   -9.2932 H         1 <0>         0.1434
     44 H6          2.2693   -3.5764   -6.5027 H         1 <0>         0.0405
     45 H7          1.2041   -4.2657   -5.2793 H         1 <0>         0.0421
     46 H8          1.7035   -2.4385   -3.7218 H         1 <0>         0.0362
     47 H9          3.2121   -3.1592   -4.2788 H         1 <0>         0.0439
     48 H10        -0.0574   -3.0370   -7.0564 H         1 <0>         0.0350
     49 H11        -0.3326   -2.3626   -5.4518 H         1 <0>         0.0428
     50 H12         3.3102   -0.6631   -4.2694 H         1 <0>         0.0663
     51 H13         3.5756   -1.3313   -5.8729 H         1 <0>         0.0466
     52 H14         1.5347   -1.2544   -7.6060 H         1 <0>         0.0493
     53 H15         0.0251   -0.5402   -7.0577 H         1 <0>         0.0520
     54 H16        -2.6369    0.9859   -8.1710 H         1 <0>         0.0915
     55 H17        -0.9427    0.8466   -8.6926 H         1 <0>         0.0601
     56 H18        -5.4989    4.6229  -10.9981 H         1 <0>         0.0688
     57 H19        -5.8853    4.2840   -9.3243 H         1 <0>         0.0630
     58 H20        -1.4316    1.7851  -10.8273 H         1 <0>         0.0807
     59 H21        -2.9449    0.9252  -10.5369 H         1 <0>         0.0380
     60 H22        -4.7542    2.3419   -9.2992 H         1 <0>         0.0484
     61 H23        -4.7632    2.4757  -11.0564 H         1 <0>         0.0697
     62 H24        -1.8289    2.9613   -7.1141 H         1 <0>         0.0843
     63 H25         0.9629   -0.1158   -4.8124 H         1 <0>         0.0831
     64 H26        -4.1735    7.4215   -8.6684 H         1 <0>         0.0704
     65 H27        -5.3683    6.2928   -8.0614 H         1 <0>         0.0718
     66 H28         2.1358    5.8550   -5.6547 H         1 <0>         0.0606
     67 H29         0.5392    5.7688   -6.3906 H         1 <0>         0.0458
     68 H30         1.1137    7.7088   -7.8313 H         1 <0>         0.0375
     69 H31         1.1884    8.1036   -6.1172 H         1 <0>         0.0392
     70 H32         3.2164    5.3787   -7.8393 H         1 <0>         0.0606
     71 H33         1.6466    5.3535   -8.6384 H         1 <0>         0.0579
     72 H34         3.5969    7.4758   -7.9212 H         1 <0>         0.0571
     73 H35         3.7066    7.8370   -6.1920 H         1 <0>         0.0503
     74 H36         2.4714    3.0747   -8.2388 H         1 <0>         0.0993
     75 H37        -3.0417    5.3386  -11.4260 H         1 <0>         0.3700
     76 H38        -2.9200    6.8973  -10.6453 H         1 <0>         0.3660
     77 H39         3.9964    9.8653   -7.6409 H         1 <0>         0.3465
     78 H40         2.3346    9.9846   -7.1136 H         1 <0>         0.3446
     79 H41         2.3934    0.9566   -7.1391 H         1 <0>         0.3148
     80 H42         0.2924    2.7728   -6.5286 H         1 <0>         0.3220
@<TRIPOS>BOND
     1    1    2 ar
     2    1    3 ar
     3    2    4 ar
     4    3    5 ar
     5    4    6 ar
     6    5    6 ar
     7    6   23 1
     8    7   22 1
     9    7   29 am
    10    7   35 2
    11    8    9 1
    12    8   28 1
    13    8   36 2
    14    9   33 am
    15    9   37 2
    16   10   20 1
    17   10   34 am
    18   10   38 2
    19   11   12 1
    20   11   13 1
    21   12   14 1
    22   13   15 1
    23   14   21 1
    24   15   21 1
    25   16   18 1
    26   16   20 1
    27   17   19 1
    28   17   22 1
    29   18   30 1
    30   19   30 1
    31   20   29 1
    32   21   33 1
    33   22   23 1
    34   22   31 1
    35   24   25 1
    36   24   26 1
    37   25   27 1
    38   26   28 1
    39   27   32 1
    40   28   34 1
    41   29   30 1
    42    1   39 1
    43    2   40 1
    44    3   41 1
    45    4   42 1
    46    5   43 1
    47   11   44 1
    48   11   45 1
    49   12   46 1
    50   12   47 1
    51   13   48 1
    52   13   49 1
    53   14   50 1
    54   14   51 1
    55   15   52 1
    56   15   53 1
    57   16   54 1
    58   16   55 1
    59   17   56 1
    60   17   57 1
    61   18   58 1
    62   18   59 1
    63   19   60 1
    64   19   61 1
    65   20   62 1
    66   21   63 1
    67   23   64 1
    68   23   65 1
    69   24   66 1
    70   24   67 1
    71   25   68 1
    72   25   69 1
    73   26   70 1
    74   26   71 1
    75   27   72 1
    76   27   73 1
    77   28   74 1
    78   31   75 1
    79   31   76 1
    80   32   77 1
    81   32   78 1
    82   33   79 1
    83   34   80 1
@<TRIPOS>MOLECULE
1a46_ligand_130
   80    83     0     0     0
SMALL
USER_CHARGES

mmff94s_NoEstat = 83.80
@<TRIPOS>ATOM
      1 C1         11.2165    5.1344   -9.5699 C.ar      1 <0>        -0.1300
      2 C2         11.8039    4.7828   -8.3546 C.ar      1 <0>        -0.1323
      3 C3          9.9328    5.6797   -9.5922 C.ar      1 <0>        -0.1309
      4 C4         11.1077    4.9765   -7.1616 C.ar      1 <0>        -0.1275
      5 C5          9.2366    5.8734   -8.3991 C.ar      1 <0>        -0.1272
      6 C6          9.8285    5.5206   -7.1916 C.ar      1 <0>        -0.0843
      7 C7          7.4784    4.7027   -4.2310 C.2       1 <0>         0.6709
      8 C8          5.2358    2.3798    1.5634 C.2       1 <0>         0.4867
      9 C9          5.3950    2.3039    3.0538 C.2       1 <0>         0.5883
     10 C10         6.2126    3.1256   -1.7338 C.2       1 <0>         0.6572
     11 C11         8.2255   -1.3143    4.8687 C.3       1 <0>        -0.0802
     12 C12         6.7106   -1.2204    4.7072 C.3       1 <0>        -0.0765
     13 C13         8.9327   -0.0675    4.3441 C.3       1 <0>        -0.0774
     14 C14         6.1552    0.0559    5.3406 C.3       1 <0>        -0.0953
     15 C15         8.3722    1.2061    4.9787 C.3       1 <0>        -0.0906
     16 C16         4.3868    2.9365   -3.4414 C.3       1 <0>        -0.0871
     17 C17         7.2608    4.1580   -6.6868 C.3       1 <0>        -0.0716
     18 C18         5.0537    2.0131   -4.4592 C.3       1 <0>         0.1333
     19 C19         6.0339    3.3363   -6.2552 C.3       1 <0>         0.1246
     20 C20         5.5372    3.7637   -2.9085 C.3       1 <0>         0.0606
     21 C21         6.8497    1.3253    4.8295 C.3       1 <0>         0.1012
     22 C22         8.2469    4.4948   -5.5436 C.3       1 <0>         0.1554
     23 C23         9.0796    5.7289   -5.9083 C.3       1 <0>        -0.0356
     24 C24         8.0800    4.9598    0.7851 C.3       1 <0>        -0.0795
     25 C25         8.7880    6.0338    1.6192 C.3       1 <0>        -0.1203
     26 C26         6.9719    4.2276    1.5544 C.3       1 <0>        -0.0920
     27 C27         9.9095    6.7454    0.8629 C.3       1 <0>         0.1502
     28 C28         6.2906    3.1130    0.7514 C.3       1 <0>         0.0224
     29 N1          6.4904    3.7576   -4.0019 N.am      1 <0>        -0.3553
     30 N2          6.2438    2.7368   -4.9387 N.3       1 <0>        -0.4320
     31 N3          9.1632    3.3713   -5.2994 N.3       1 <0>        -0.9031
     32 N4         10.5470    7.7366    1.7233 N.3       1 <0>        -0.9068
     33 N5          6.4949    1.5685    3.4295 N.am      1 <0>        -0.5526
     34 N6          5.7762    3.5917   -0.5046 N.am      1 <0>        -0.5576
     35 O1          7.7368    5.6223   -3.4546 O.2       1 <0>        -0.6710
     36 O2          4.2060    1.9080    1.0985 O.2       1 <0>        -0.4901
     37 O3          4.5583    2.8586    3.7473 O.2       1 <0>        -0.5902
     38 O4          7.0689    2.2691   -1.9210 O.2       1 <0>        -0.5833
     39 H1         11.7586    4.9835  -10.4989 H         1 <0>         0.1320
     40 H2         12.8034    4.3582   -8.3374 H         1 <0>         0.1324
     41 H3          9.4755    5.9533  -10.5385 H         1 <0>         0.1328
     42 H4         11.5733    4.6996   -6.2195 H         1 <0>         0.1324
     43 H5          8.2369    6.2989   -8.4262 H         1 <0>         0.1434
     44 H6          8.4691   -1.4496    5.9298 H         1 <0>         0.0405
     45 H7          8.5986   -2.1995    4.3412 H         1 <0>         0.0421
     46 H8          6.4541   -1.2475    3.6412 H         1 <0>         0.0362
     47 H9          6.2374   -2.0946    5.1688 H         1 <0>         0.0439
     48 H10        10.0063   -0.1392    4.5524 H         1 <0>         0.0350
     49 H11         8.8243   -0.0173    3.2539 H         1 <0>         0.0428
     50 H12         5.0767    0.1130    5.1494 H         1 <0>         0.0663
     51 H13         6.2821   -0.0051    6.4290 H         1 <0>         0.0466
     52 H14         8.6266    1.2112    6.0463 H         1 <0>         0.0493
     53 H15         8.8643    2.0779    4.5308 H         1 <0>         0.0520
     54 H16         3.6738    3.5897   -3.9595 H         1 <0>         0.0915
     55 H17         3.8488    2.3812   -2.6670 H         1 <0>         0.0601
     56 H18         7.7933    3.6252   -7.4865 H         1 <0>         0.0688
     57 H19         6.8963    5.0889   -7.1420 H         1 <0>         0.0630
     58 H20         5.3910    1.1000   -3.9542 H         1 <0>         0.0807
     59 H21         4.3651    1.7081   -5.2548 H         1 <0>         0.0380
     60 H22         5.1498    3.9888   -6.2523 H         1 <0>         0.0484
     61 H23         5.8493    2.5563   -7.0035 H         1 <0>         0.0697
     62 H24         5.2534    4.7844   -2.6367 H         1 <0>         0.0843
     63 H25         6.4887    2.1963    5.3865 H         1 <0>         0.0831
     64 H26         9.7736    5.9418   -5.0932 H         1 <0>         0.0704
     65 H27         8.4167    6.5923   -5.9906 H         1 <0>         0.0718
     66 H28         7.6494    5.4516   -0.0948 H         1 <0>         0.0606
     67 H29         8.8216    4.2418    0.4157 H         1 <0>         0.0458
     68 H30         8.0356    6.7709    1.9287 H         1 <0>         0.0375
     69 H31         9.1825    5.5824    2.5383 H         1 <0>         0.0392
     70 H32         6.2171    4.9575    1.8728 H         1 <0>         0.0606
     71 H33         7.3929    3.7874    2.4660 H         1 <0>         0.0579
     72 H34         9.5108    7.2416   -0.0285 H         1 <0>         0.0571
     73 H35        10.6706    6.0303    0.5375 H         1 <0>         0.0503
     74 H36         7.0421    2.3587    0.4881 H         1 <0>         0.0993
     75 H37         8.8040    2.4509   -5.4050 H         1 <0>         0.3700
     76 H38        10.0264    3.5689   -4.8487 H         1 <0>         0.3660
     77 H39        11.2163    8.3531    1.3147 H         1 <0>         0.3465
     78 H40        10.4498    7.6340    2.7108 H         1 <0>         0.3446
     79 H41         7.0876    1.1766    2.7037 H         1 <0>         0.3148
     80 H42         5.0545    4.3100   -0.4888 H         1 <0>         0.3220
@<TRIPOS>BOND
     1    1    2 ar
     2    1    3 ar
     3    2    4 ar
     4    3    5 ar
     5    4    6 ar
     6    5    6 ar
     7    6   23 1
     8    7   22 1
     9    7   29 am
    10    7   35 2
    11    8    9 1
    12    8   28 1
    13    8   36 2
    14    9   33 am
    15    9   37 2
    16   10   20 1
    17   10   34 am
    18   10   38 2
    19   11   12 1
    20   11   13 1
    21   12   14 1
    22   13   15 1
    23   14   21 1
    24   15   21 1
    25   16   18 1
    26   16   20 1
    27   17   19 1
    28   17   22 1
    29   18   30 1
    30   19   30 1
    31   20   29 1
    32   21   33 1
    33   22   23 1
    34   22   31 1
    35   24   25 1
    36   24   26 1
    37   25   27 1
    38   26   28 1
    39   27   32 1
    40   28   34 1
    41   29   30 1
    42    1   39 1
    43    2   40 1
    44    3   41 1
    45    4   42 1
    46    5   43 1
    47   11   44 1
    48   11   45 1
    49   12   46 1
    50   12   47 1
    51   13   48 1
    52   13   49 1
    53   14   50 1
    54   14   51 1
    55   15   52 1
    56   15   53 1
    57   16   54 1
    58   16   55 1
    59   17   56 1
    60   17   57 1
    61   18   58 1
    62   18   59 1
    63   19   60 1
    64   19   61 1
    65   20   62 1
    66   21   63 1
    67   23   64 1
    68   23   65 1
    69   24   66 1
    70   24   67 1
    71   25   68 1
    72   25   69 1
    73   26   70 1
    74   26   71 1
    75   27   72 1
    76   27   73 1
    77   28   74 1
    78   31   75 1
    79   31   76 1
    80   32   77 1
    81   32   78 1
    82   33   79 1
    83   34   80 1
@<TRIPOS>MOLECULE
1a46_ligand_131
   80    83     0     0     0
SMALL
USER_CHARGES

mmff94s_NoEstat = 83.82
@<TRIPOS>ATOM
      1 C1         -7.4797    9.4967   -7.6833 C.ar      1 <0>        -0.1300
      2 C2         -6.1413    9.8890   -7.6640 C.ar      1 <0>        -0.1323
      3 C3         -7.8300    8.1942   -7.3275 C.ar      1 <0>        -0.1309
      4 C4         -5.1531    8.9788   -7.2890 C.ar      1 <0>        -0.1275
      5 C5         -6.8418    7.2840   -6.9525 C.ar      1 <0>        -0.1272
      6 C6         -5.5098    7.6822   -6.9356 C.ar      1 <0>        -0.0843
      7 C7         -2.8249    4.9275   -7.3366 C.2       1 <0>         0.6709
      8 C8          2.7796    3.2097   -6.1637 C.2       1 <0>         0.4867
      9 C9          2.2829    2.0299   -5.3801 C.2       1 <0>         0.5883
     10 C10        -0.2306    3.3845   -8.4382 C.2       1 <0>         0.6572
     11 C11         1.5839   -3.3211   -5.6848 C.3       1 <0>        -0.0802
     12 C12         0.4244   -2.4952   -6.2347 C.3       1 <0>        -0.0765
     13 C13         2.3480   -2.5670   -4.6002 C.3       1 <0>        -0.0774
     14 C14         0.8909   -1.1259   -6.7260 C.3       1 <0>        -0.0953
     15 C15         2.8173   -1.1981   -5.0901 C.3       1 <0>        -0.0906
     16 C16        -2.0896    1.9125   -9.2523 C.3       1 <0>        -0.0871
     17 C17        -5.0696    5.1956   -8.4612 C.3       1 <0>        -0.0716
     18 C18        -2.7315    2.8271  -10.2937 C.3       1 <0>         0.1333
     19 C19        -4.6344    3.9888   -9.3103 C.3       1 <0>         0.1246
     20 C20        -1.6152    2.8736   -8.1831 C.3       1 <0>         0.0606
     21 C21         1.6479   -0.3676   -5.6301 C.3       1 <0>         0.1012
     22 C22        -3.9131    5.9309   -7.7439 C.3       1 <0>         0.1554
     23 C23        -4.4468    6.7032   -6.5322 C.3       1 <0>        -0.0356
     24 C24         1.5857    6.0302   -6.5865 C.3       1 <0>        -0.0795
     25 C25         1.6811    7.5259   -6.9095 C.3       1 <0>        -0.1203
     26 C26         2.1570    5.1335   -7.6933 C.3       1 <0>        -0.0920
     27 C27         1.0885    8.4192   -5.8200 C.3       1 <0>         0.1502
     28 C28         2.0196    3.6328   -7.4097 C.3       1 <0>         0.0224
     29 N1         -2.5167    4.0015   -8.3211 N.am      1 <0>        -0.3553
     30 N2         -3.1935    4.0149   -9.5549 N.3       1 <0>        -0.4320
     31 N3         -3.2606    6.8849   -8.6526 N.3       1 <0>        -0.9031
     32 N4          1.8018    8.2205   -4.5627 N.3       1 <0>        -0.9068
     33 N5          2.1424    0.9032   -6.1564 N.am      1 <0>        -0.5526
     34 N6          0.6426    3.2153   -7.3763 N.am      1 <0>        -0.5576
     35 O1         -2.2744    4.9630   -6.2362 O.2       1 <0>        -0.6710
     36 O2          3.8302    3.7133   -5.7870 O.2       1 <0>        -0.4901
     37 O3          2.0451    2.1901   -4.1942 O.2       1 <0>        -0.5902
     38 O4          0.0350    3.8958   -9.5198 O.2       1 <0>        -0.5833
     39 H1         -8.2492   10.2053   -7.9754 H         1 <0>         0.1320
     40 H2         -5.8687   10.9031   -7.9411 H         1 <0>         0.1324
     41 H3         -8.8721    7.8888   -7.3428 H         1 <0>         0.1328
     42 H4         -4.1129    9.2934   -7.2769 H         1 <0>         0.1324
     43 H5         -7.1240    6.2713   -6.6769 H         1 <0>         0.1434
     44 H6          1.2042   -4.2657   -5.2794 H         1 <0>         0.0405
     45 H7          2.2691   -3.5761   -6.5026 H         1 <0>         0.0421
     46 H8         -0.0570   -3.0372   -7.0565 H         1 <0>         0.0362
     47 H9         -0.3330   -2.3624   -5.4523 H         1 <0>         0.0439
     48 H10         1.7042   -2.4383   -3.7214 H         1 <0>         0.0350
     49 H11         3.2122   -3.1594   -4.2790 H         1 <0>         0.0428
     50 H12         1.5345   -1.2546   -7.6063 H         1 <0>         0.0663
     51 H13         0.0255   -0.5396   -7.0578 H         1 <0>         0.0466
     52 H14         3.3092   -0.6626   -4.2690 H         1 <0>         0.0493
     53 H15         3.5759   -1.3314   -5.8726 H         1 <0>         0.0520
     54 H16        -2.8557    1.2475   -8.8346 H         1 <0>         0.0915
     55 H17        -1.2902    1.2972   -9.6764 H         1 <0>         0.0601
     56 H18        -5.6211    5.9056   -9.0926 H         1 <0>         0.0688
     57 H19        -5.7930    4.8367   -7.7165 H         1 <0>         0.0630
     58 H20        -1.9690    3.1489  -11.0132 H         1 <0>         0.0807
     59 H21        -3.5191    2.3193  -10.8614 H         1 <0>         0.0380
     60 H22        -4.9276    3.0642   -8.7940 H         1 <0>         0.0484
     61 H23        -5.1821    4.0085  -10.2602 H         1 <0>         0.0697
     62 H24        -1.6538    2.4576   -7.1723 H         1 <0>         0.0843
     63 H25         0.9628   -0.1158   -4.8123 H         1 <0>         0.0831
     64 H26        -3.6167    7.2210   -6.0482 H         1 <0>         0.0704
     65 H27        -4.8413    5.9920   -5.8041 H         1 <0>         0.0718
     66 H28         2.1358    5.8550   -5.6547 H         1 <0>         0.0606
     67 H29         0.5392    5.7688   -6.3906 H         1 <0>         0.0458
     68 H30         2.7419    7.7748   -7.0444 H         1 <0>         0.0375
     69 H31         1.1870    7.7255   -7.8687 H         1 <0>         0.0392
     70 H32         3.2164    5.3787   -7.8393 H         1 <0>         0.0606
     71 H33         1.6466    5.3535   -8.6384 H         1 <0>         0.0579
     72 H34         0.0275    8.1885   -5.6755 H         1 <0>         0.0571
     73 H35         1.1682    9.4739   -6.0992 H         1 <0>         0.0503
     74 H36         2.4714    3.0747   -8.2388 H         1 <0>         0.0993
     75 H37        -3.1845    6.6323   -9.6106 H         1 <0>         0.3700
     76 H38        -2.7498    7.6342   -8.2464 H         1 <0>         0.3660
     77 H39         1.4387    8.6562   -3.7421 H         1 <0>         0.3465
     78 H40         2.7216    7.8360   -4.5996 H         1 <0>         0.3446
     79 H41         2.3934    0.9566   -7.1391 H         1 <0>         0.3148
     80 H42         0.2924    2.7728   -6.5286 H         1 <0>         0.3220
@<TRIPOS>BOND
     1    1    2 ar
     2    1    3 ar
     3    2    4 ar
     4    3    5 ar
     5    4    6 ar
     6    5    6 ar
     7    6   23 1
     8    7   22 1
     9    7   29 am
    10    7   35 2
    11    8    9 1
    12    8   28 1
    13    8   36 2
    14    9   33 am
    15    9   37 2
    16   10   20 1
    17   10   34 am
    18   10   38 2
    19   11   12 1
    20   11   13 1
    21   12   14 1
    22   13   15 1
    23   14   21 1
    24   15   21 1
    25   16   18 1
    26   16   20 1
    27   17   19 1
    28   17   22 1
    29   18   30 1
    30   19   30 1
    31   20   29 1
    32   21   33 1
    33   22   23 1
    34   22   31 1
    35   24   25 1
    36   24   26 1
    37   25   27 1
    38   26   28 1
    39   27   32 1
    40   28   34 1
    41   29   30 1
    42    1   39 1
    43    2   40 1
    44    3   41 1
    45    4   42 1
    46    5   43 1
    47   11   44 1
    48   11   45 1
    49   12   46 1
    50   12   47 1
    51   13   48 1
    52   13   49 1
    53   14   50 1
    54   14   51 1
    55   15   52 1
    56   15   53 1
    57   16   54 1
    58   16   55 1
    59   17   56 1
    60   17   57 1
    61   18   58 1
    62   18   59 1
    63   19   60 1
    64   19   61 1
    65   20   62 1
    66   21   63 1
    67   23   64 1
    68   23   65 1
    69   24   66 1
    70   24   67 1
    71   25   68 1
    72   25   69 1
    73   26   70 1
    74   26   71 1
    75   27   72 1
    76   27   73 1
    77   28   74 1
    78   31   75 1
    79   31   76 1
    80   32   77 1
    81   32   78 1
    82   33   79 1
    83   34   80 1
@<TRIPOS>MOLECULE
1a46_ligand_132
   80    83     0     0     0
SMALL
USER_CHARGES

mmff94s_NoEstat = 83.84
@<TRIPOS>ATOM
      1 C1         -3.7305   -5.9204  -11.3537 C.ar      1 <0>        -0.1300
      2 C2         -2.4262   -5.5183  -11.6410 C.ar      1 <0>        -0.1323
      3 C3         -4.6750   -4.9808  -10.9404 C.ar      1 <0>        -0.1309
      4 C4         -2.0662   -4.1766  -11.5149 C.ar      1 <0>        -0.1275
      5 C5         -4.3150   -3.6391  -10.8142 C.ar      1 <0>        -0.1272
      6 C6         -3.0129   -3.2458  -11.1023 C.ar      1 <0>        -0.0843
      7 C7         -1.7147   -0.0189   -9.4111 C.2       1 <0>         0.6709
      8 C8          2.7796    3.2097   -6.1637 C.2       1 <0>         0.4867
      9 C9          4.2587    3.4565   -6.1009 C.2       1 <0>         0.5883
     10 C10         0.2181    1.9581   -7.7739 C.2       1 <0>         0.6572
     11 C11         8.9757    1.4639   -7.8314 C.3       1 <0>        -0.0802
     12 C12         8.5623    1.6823   -6.3787 C.3       1 <0>        -0.0765
     13 C13         8.3422    2.4973   -8.7587 C.3       1 <0>        -0.0774
     14 C14         7.0427    1.7177   -6.2244 C.3       1 <0>        -0.0953
     15 C15         6.8224    2.5330   -8.6075 C.3       1 <0>        -0.0906
     16 C16        -1.7326    1.7367   -6.2145 C.3       1 <0>        -0.0871
     17 C17        -3.1871   -1.8587   -8.5042 C.3       1 <0>        -0.0716
     18 C18        -1.5889    0.2745   -5.7969 C.3       1 <0>         0.1333
     19 C19        -3.0480   -1.1203   -7.1617 C.3       1 <0>         0.1246
     20 C20        -1.2590    1.7411   -7.6524 C.3       1 <0>         0.0606
     21 C21         6.4119    2.7646   -7.1492 C.3       1 <0>         0.1012
     22 C22        -2.1125   -1.4947   -9.5555 C.3       1 <0>         0.1554
     23 C23        -2.6257   -1.8026  -10.9666 C.3       1 <0>        -0.0356
     24 C24         1.5857    6.0302   -6.5865 C.3       1 <0>        -0.0795
     25 C25         1.6811    7.5259   -6.9095 C.3       1 <0>        -0.1203
     26 C26         2.1570    5.1335   -7.6933 C.3       1 <0>        -0.0920
     27 C27         3.1174    8.0140   -7.0965 C.3       1 <0>         0.1502
     28 C28         2.0196    3.6328   -7.4097 C.3       1 <0>         0.0224
     29 N1         -1.5278    0.3875   -8.0990 N.am      1 <0>        -0.3553
     30 N2         -1.7250   -0.5121   -7.0349 N.3       1 <0>        -0.4320
     31 N3         -0.8818   -2.2667   -9.3297 N.3       1 <0>        -0.9031
     32 N4          3.1298    9.4451   -7.3814 N.3       1 <0>        -0.9068
     33 N5          4.9558    2.7197   -7.0299 N.am      1 <0>        -0.5526
     34 N6          0.6426    3.2153   -7.3763 N.am      1 <0>        -0.5576
     35 O1         -1.5651    0.7213  -10.3831 O.2       1 <0>        -0.6710
     36 O2          2.2586    2.7495   -5.1557 O.2       1 <0>        -0.4901
     37 O3          4.6736    4.2333   -5.2564 O.2       1 <0>        -0.5902
     38 O4          0.9290    1.0536   -8.1959 O.2       1 <0>        -0.5833
     39 H1         -4.0108   -6.9651  -11.4519 H         1 <0>         0.1320
     40 H2         -1.6909   -6.2500  -11.9629 H         1 <0>         0.1324
     41 H3         -5.6906   -5.2940  -10.7166 H         1 <0>         0.1328
     42 H4         -1.0476   -3.8726  -11.7408 H         1 <0>         0.1324
     43 H5         -5.0575   -2.9141  -10.4915 H         1 <0>         0.1434
     44 H6         10.0672    1.5130   -7.9155 H         1 <0>         0.0405
     45 H7          8.6750    0.4576   -8.1481 H         1 <0>         0.0421
     46 H8          8.9775    0.8840   -5.7533 H         1 <0>         0.0362
     47 H9          8.9870    2.6264   -6.0159 H         1 <0>         0.0439
     48 H10         8.7538    3.4895   -8.5363 H         1 <0>         0.0350
     49 H11         8.6037    2.2687   -9.7981 H         1 <0>         0.0428
     50 H12         6.6307    0.7243   -6.4460 H         1 <0>         0.0663
     51 H13         6.7838    1.9350   -5.1810 H         1 <0>         0.0466
     52 H14         6.4082    3.3249   -9.2434 H         1 <0>         0.0493
     53 H15         6.3975    1.5882   -8.9715 H         1 <0>         0.0520
     54 H16        -2.7915    2.0208   -6.1758 H         1 <0>         0.0915
     55 H17        -1.1685    2.4118   -5.5637 H         1 <0>         0.0601
     56 H18        -3.1756   -2.9428   -8.3269 H         1 <0>         0.0688
     57 H19        -4.1842   -1.6345   -8.9071 H         1 <0>         0.0630
     58 H20        -0.5812    0.1087   -5.3971 H         1 <0>         0.0807
     59 H21        -2.2993   -0.0031   -5.0104 H         1 <0>         0.0380
     60 H22        -3.8377   -0.3598   -7.0886 H         1 <0>         0.0484
     61 H23        -3.2188   -1.8335   -6.3463 H         1 <0>         0.0697
     62 H24        -1.7729    2.4744   -8.2803 H         1 <0>         0.0843
     63 H25         6.7153    3.7695   -6.8335 H         1 <0>         0.0831
     64 H26        -1.8489   -1.5475  -11.6898 H         1 <0>         0.0704
     65 H27        -3.4798   -1.1578  -11.1818 H         1 <0>         0.0718
     66 H28         2.1358    5.8550   -5.6547 H         1 <0>         0.0606
     67 H29         0.5392    5.7688   -6.3906 H         1 <0>         0.0458
     68 H30         1.1137    7.7088   -7.8313 H         1 <0>         0.0375
     69 H31         1.1884    8.1036   -6.1172 H         1 <0>         0.0392
     70 H32         3.2164    5.3787   -7.8393 H         1 <0>         0.0606
     71 H33         1.6466    5.3535   -8.6384 H         1 <0>         0.0579
     72 H34         3.5969    7.4758   -7.9212 H         1 <0>         0.0571
     73 H35         3.7066    7.8370   -6.1920 H         1 <0>         0.0503
     74 H36         2.4714    3.0747   -8.2388 H         1 <0>         0.0993
     75 H37        -0.6260   -2.4640   -8.3900 H         1 <0>         0.3700
     76 H38        -0.2603   -2.3800  -10.0968 H         1 <0>         0.3660
     77 H39         3.9964    9.8653   -7.6409 H         1 <0>         0.3465
     78 H40         2.3346    9.9846   -7.1136 H         1 <0>         0.3446
     79 H41         4.4356    2.1176   -7.6610 H         1 <0>         0.3148
     80 H42        -0.0552    3.8781   -7.0434 H         1 <0>         0.3220
@<TRIPOS>BOND
     1    1    2 ar
     2    1    3 ar
     3    2    4 ar
     4    3    5 ar
     5    4    6 ar
     6    5    6 ar
     7    6   23 1
     8    7   22 1
     9    7   29 am
    10    7   35 2
    11    8    9 1
    12    8   28 1
    13    8   36 2
    14    9   33 am
    15    9   37 2
    16   10   20 1
    17   10   34 am
    18   10   38 2
    19   11   12 1
    20   11   13 1
    21   12   14 1
    22   13   15 1
    23   14   21 1
    24   15   21 1
    25   16   18 1
    26   16   20 1
    27   17   19 1
    28   17   22 1
    29   18   30 1
    30   19   30 1
    31   20   29 1
    32   21   33 1
    33   22   23 1
    34   22   31 1
    35   24   25 1
    36   24   26 1
    37   25   27 1
    38   26   28 1
    39   27   32 1
    40   28   34 1
    41   29   30 1
    42    1   39 1
    43    2   40 1
    44    3   41 1
    45    4   42 1
    46    5   43 1
    47   11   44 1
    48   11   45 1
    49   12   46 1
    50   12   47 1
    51   13   48 1
    52   13   49 1
    53   14   50 1
    54   14   51 1
    55   15   52 1
    56   15   53 1
    57   16   54 1
    58   16   55 1
    59   17   56 1
    60   17   57 1
    61   18   58 1
    62   18   59 1
    63   19   60 1
    64   19   61 1
    65   20   62 1
    66   21   63 1
    67   23   64 1
    68   23   65 1
    69   24   66 1
    70   24   67 1
    71   25   68 1
    72   25   69 1
    73   26   70 1
    74   26   71 1
    75   27   72 1
    76   27   73 1
    77   28   74 1
    78   31   75 1
    79   31   76 1
    80   32   77 1
    81   32   78 1
    82   33   79 1
    83   34   80 1
@<TRIPOS>MOLECULE
1a46_ligand_133
   80    83     0     0     0
SMALL
USER_CHARGES

mmff94s_NoEstat = 83.87
@<TRIPOS>ATOM
      1 C1         -4.2961    6.3604   -2.7495 C.ar      1 <0>        -0.1300
      2 C2         -3.8917    5.7888   -1.5431 C.ar      1 <0>        -0.1323
      3 C3         -3.4839    6.2539   -3.8786 C.ar      1 <0>        -0.1309
      4 C4         -2.6752    5.1109   -1.4657 C.ar      1 <0>        -0.1275
      5 C5         -2.2674    5.5759   -3.8012 C.ar      1 <0>        -0.1272
      6 C6         -1.8709    5.0088   -2.5952 C.ar      1 <0>        -0.0843
      7 C7          1.9202    4.4855   -2.0375 C.2       1 <0>         0.6709
      8 C8          5.2358    2.3798    1.5634 C.2       1 <0>         0.4867
      9 C9          5.3950    2.3039    3.0538 C.2       1 <0>         0.5883
     10 C10         4.7954    4.5647   -0.6048 C.2       1 <0>         0.6572
     11 C11         9.8151    1.0691    4.8799 C.3       1 <0>        -0.0802
     12 C12         8.9381   -0.0596    4.3444 C.3       1 <0>        -0.0765
     13 C13         9.1469    2.4326    4.7241 C.3       1 <0>        -0.0774
     14 C14         7.5441   -0.0356    4.9728 C.3       1 <0>        -0.0953
     15 C15         7.7525    2.4508    5.3519 C.3       1 <0>        -0.0906
     16 C16         5.1345    6.1376   -2.5274 C.3       1 <0>        -0.0871
     17 C17         0.6797    6.3873   -3.1418 C.3       1 <0>        -0.0716
     18 C18         4.2227    7.2889   -2.1078 C.3       1 <0>         0.1333
     19 C19         2.0578    7.0682   -3.2043 C.3       1 <0>         0.1246
     20 C20         4.4137    4.9104   -2.0113 C.3       1 <0>         0.0606
     21 C21         6.8497    1.3253    4.8295 C.3       1 <0>         0.1012
     22 C22         0.5786    5.2268   -2.1241 C.3       1 <0>         0.1554
     23 C23        -0.5623    4.2796   -2.5120 C.3       1 <0>        -0.0356
     24 C24         8.0800    4.9598    0.7851 C.3       1 <0>        -0.0795
     25 C25         8.7880    6.0338    1.6192 C.3       1 <0>        -0.1203
     26 C26         6.9719    4.2276    1.5544 C.3       1 <0>        -0.0920
     27 C27         9.9095    6.7454    0.8629 C.3       1 <0>         0.1502
     28 C28         6.2906    3.1130    0.7514 C.3       1 <0>         0.0224
     29 N1          3.0235    5.3233   -1.9852 N.am      1 <0>        -0.3553
     30 N2          2.8653    6.7208   -2.0365 N.3       1 <0>        -0.4320
     31 N3          0.3159    5.7420   -0.7724 N.3       1 <0>        -0.9031
     32 N4         10.5470    7.7366    1.7233 N.3       1 <0>        -0.9068
     33 N5          6.4949    1.5685    3.4295 N.am      1 <0>        -0.5526
     34 N6          5.7762    3.5917   -0.5046 N.am      1 <0>        -0.5576
     35 O1          1.9934    3.2573   -2.0040 O.2       1 <0>        -0.6710
     36 O2          4.2060    1.9080    1.0985 O.2       1 <0>        -0.4901
     37 O3          4.5583    2.8586    3.7473 O.2       1 <0>        -0.5902
     38 O4          4.2448    5.1367    0.3286 O.2       1 <0>        -0.5833
     39 H1         -5.2433    6.8883   -2.8098 H         1 <0>         0.1320
     40 H2         -4.5242    5.8718   -0.6641 H         1 <0>         0.1324
     41 H3         -3.7988    6.6991   -4.8178 H         1 <0>         0.1328
     42 H4         -2.3683    4.6687   -0.5215 H         1 <0>         0.1324
     43 H5         -1.6411    5.4981   -4.6860 H         1 <0>         0.1434
     44 H6         10.0291    0.8896    5.9408 H         1 <0>         0.0405
     45 H7         10.7780    1.0682    4.3566 H         1 <0>         0.0421
     46 H8          8.8552    0.0275    3.2543 H         1 <0>         0.0362
     47 H9          9.4160   -1.0245    4.5493 H         1 <0>         0.0439
     48 H10         9.7701    3.2027    5.1927 H         1 <0>         0.0350
     49 H11         9.0775    2.6860    3.6593 H         1 <0>         0.0428
     50 H12         6.9302   -0.8221    4.5174 H         1 <0>         0.0663
     51 H13         7.6325   -0.2791    6.0392 H         1 <0>         0.0466
     52 H14         7.8529    2.3503    6.4402 H         1 <0>         0.0493
     53 H15         7.2863    3.4257    5.1647 H         1 <0>         0.0520
     54 H16         5.1868    6.0993   -3.6226 H         1 <0>         0.0915
     55 H17         6.1502    6.2483   -2.1355 H         1 <0>         0.0601
     56 H18        -0.0889    7.1398   -2.9187 H         1 <0>         0.0688
     57 H19         0.4458    6.0134   -4.1479 H         1 <0>         0.0630
     58 H20         4.5037    7.6265   -1.1030 H         1 <0>         0.0807
     59 H21         4.3115    8.1522   -2.7765 H         1 <0>         0.0380
     60 H22         2.5627    6.7687   -4.1331 H         1 <0>         0.0484
     61 H23         1.9139    8.1541   -3.2580 H         1 <0>         0.0697
     62 H24         4.5519    4.0254   -2.6387 H         1 <0>         0.0843
     63 H25         5.9045    1.3202    5.3824 H         1 <0>         0.0831
     64 H26        -0.6211    3.4755   -1.7762 H         1 <0>         0.0704
     65 H27        -0.3254    3.8127   -3.4698 H         1 <0>         0.0718
     66 H28         7.6494    5.4516   -0.0948 H         1 <0>         0.0606
     67 H29         8.8216    4.2418    0.4157 H         1 <0>         0.0458
     68 H30         8.0356    6.7709    1.9287 H         1 <0>         0.0375
     69 H31         9.1825    5.5824    2.5383 H         1 <0>         0.0392
     70 H32         6.2171    4.9575    1.8728 H         1 <0>         0.0606
     71 H33         7.3929    3.7874    2.4660 H         1 <0>         0.0579
     72 H34         9.5108    7.2416   -0.0285 H         1 <0>         0.0571
     73 H35        10.6706    6.0303    0.5375 H         1 <0>         0.0503
     74 H36         7.0421    2.3587    0.4881 H         1 <0>         0.0993
     75 H37         0.7364    6.6054   -0.5173 H         1 <0>         0.3700
     76 H38        -0.0926    5.1211   -0.1128 H         1 <0>         0.3660
     77 H39        11.2163    8.3531    1.3147 H         1 <0>         0.3465
     78 H40        10.4498    7.6340    2.7108 H         1 <0>         0.3446
     79 H41         7.0876    1.1766    2.7037 H         1 <0>         0.3148
     80 H42         6.1527    3.1949   -1.3636 H         1 <0>         0.3220
@<TRIPOS>BOND
     1    1    2 ar
     2    1    3 ar
     3    2    4 ar
     4    3    5 ar
     5    4    6 ar
     6    5    6 ar
     7    6   23 1
     8    7   22 1
     9    7   29 am
    10    7   35 2
    11    8    9 1
    12    8   28 1
    13    8   36 2
    14    9   33 am
    15    9   37 2
    16   10   20 1
    17   10   34 am
    18   10   38 2
    19   11   12 1
    20   11   13 1
    21   12   14 1
    22   13   15 1
    23   14   21 1
    24   15   21 1
    25   16   18 1
    26   16   20 1
    27   17   19 1
    28   17   22 1
    29   18   30 1
    30   19   30 1
    31   20   29 1
    32   21   33 1
    33   22   23 1
    34   22   31 1
    35   24   25 1
    36   24   26 1
    37   25   27 1
    38   26   28 1
    39   27   32 1
    40   28   34 1
    41   29   30 1
    42    1   39 1
    43    2   40 1
    44    3   41 1
    45    4   42 1
    46    5   43 1
    47   11   44 1
    48   11   45 1
    49   12   46 1
    50   12   47 1
    51   13   48 1
    52   13   49 1
    53   14   50 1
    54   14   51 1
    55   15   52 1
    56   15   53 1
    57   16   54 1
    58   16   55 1
    59   17   56 1
    60   17   57 1
    61   18   58 1
    62   18   59 1
    63   19   60 1
    64   19   61 1
    65   20   62 1
    66   21   63 1
    67   23   64 1
    68   23   65 1
    69   24   66 1
    70   24   67 1
    71   25   68 1
    72   25   69 1
    73   26   70 1
    74   26   71 1
    75   27   72 1
    76   27   73 1
    77   28   74 1
    78   31   75 1
    79   31   76 1
    80   32   77 1
    81   32   78 1
    82   33   79 1
    83   34   80 1
@<TRIPOS>MOLECULE
1a46_ligand_134
   80    83     0     0     0
SMALL
USER_CHARGES

mmff94s_NoEstat = 83.91
@<TRIPOS>ATOM
      1 C1          5.9504   -1.3642  -10.1903 C.ar      1 <0>        -0.1300
      2 C2          6.6765   -1.8241   -9.0918 C.ar      1 <0>        -0.1323
      3 C3          5.5463   -0.0305  -10.2504 C.ar      1 <0>        -0.1309
      4 C4          6.9984   -0.9504   -8.0532 C.ar      1 <0>        -0.1275
      5 C5          5.8681    0.8432   -9.2119 C.ar      1 <0>        -0.1272
      6 C6          6.5921    0.3776   -8.1201 C.ar      1 <0>        -0.0843
      7 C7          6.1974    2.2868   -4.7798 C.2       1 <0>         0.6709
      8 C8          5.2358    2.3798    1.5634 C.2       1 <0>         0.4867
      9 C9          3.8230    2.3549    1.0577 C.2       1 <0>         0.5883
     10 C10         5.7098    2.8119   -1.6475 C.2       1 <0>         0.6572
     11 C11         1.4085   -1.9541    1.0568 C.3       1 <0>        -0.0802
     12 C12         2.4102   -1.7120   -0.0693 C.3       1 <0>        -0.0765
     13 C13         1.3521   -0.7805    2.0311 C.3       1 <0>        -0.0774
     14 C14         2.1398   -0.3897   -0.7884 C.3       1 <0>        -0.0953
     15 C15         1.0838    0.5396    1.3070 C.3       1 <0>        -0.0906
     16 C16         3.6723    3.8570   -2.6681 C.3       1 <0>        -0.0871
     17 C17         4.4858    1.7161   -6.5463 C.3       1 <0>        -0.0716
     18 C18         2.9535    2.6133   -3.1875 C.3       1 <0>         0.1333
     19 C19         3.4659    2.2898   -5.5476 C.3       1 <0>         0.1246
     20 C20         5.1372    3.5153   -2.8394 C.3       1 <0>         0.0606
     21 C21         2.0784    0.8075    0.1696 C.3       1 <0>         0.1012
     22 C22         5.8481    1.3265   -5.9256 C.3       1 <0>         0.1554
     23 C23         6.9383    1.3175   -7.0029 C.3       1 <0>        -0.0356
     24 C24         7.6485    3.7409    2.8432 C.3       1 <0>        -0.0795
     25 C25         8.2774    4.8743    3.6620 C.3       1 <0>        -0.1203
     26 C26         6.9719    4.2276    1.5544 C.3       1 <0>        -0.0920
     27 C27         8.9284    4.3945    4.9589 C.3       1 <0>         0.1502
     28 C28         6.2906    3.1130    0.7514 C.3       1 <0>         0.0224
     29 N1          5.1345    2.5635   -3.9339 N.am      1 <0>        -0.3553
     30 N2          3.8653    2.0037   -4.1710 N.3       1 <0>        -0.4320
     31 N3          5.7803   -0.0123   -5.3216 N.3       1 <0>        -0.9031
     32 N4          9.4866    5.5266    5.6910 N.3       1 <0>        -0.9068
     33 N5          3.4082    1.0891    0.7148 N.am      1 <0>        -0.5526
     34 N6          5.7762    3.5917   -0.5046 N.am      1 <0>        -0.5576
     35 O1          7.3278    2.7504   -4.6301 O.2       1 <0>        -0.6710
     36 O2          5.4669    1.7271    2.5732 O.2       1 <0>        -0.4901
     37 O3          3.2225    3.4147    0.9857 O.2       1 <0>        -0.5902
     38 O4          6.0670    1.6440   -1.7490 O.2       1 <0>        -0.5833
     39 H1          5.6997   -2.0446  -10.9989 H         1 <0>         0.1320
     40 H2          6.9911   -2.8626   -9.0451 H         1 <0>         0.1324
     41 H3          4.9808    0.3274  -11.1059 H         1 <0>         0.1328
     42 H4          7.5644   -1.3176   -7.2012 H         1 <0>         0.1324
     43 H5          5.5489    1.8806   -9.2673 H         1 <0>         0.1434
     44 H6          0.4123   -2.1163    0.6268 H         1 <0>         0.0405
     45 H7          1.6748   -2.8696    1.5969 H         1 <0>         0.0421
     46 H8          3.4275   -1.7101    0.3405 H         1 <0>         0.0362
     47 H9          2.3604   -2.5373   -0.7887 H         1 <0>         0.0439
     48 H10         0.5662   -0.9575    2.7741 H         1 <0>         0.0350
     49 H11         2.2989   -0.7161    2.5809 H         1 <0>         0.0428
     50 H12         2.9155   -0.2268   -1.5465 H         1 <0>         0.0663
     51 H13         1.1844   -0.4667   -1.3229 H         1 <0>         0.0466
     52 H14         0.0677    0.5160    0.8929 H         1 <0>         0.0493
     53 H15         1.1117    1.3607    2.0335 H         1 <0>         0.0520
     54 H16         3.4181    4.7133   -3.3051 H         1 <0>         0.0915
     55 H17         3.3944    4.0971   -1.6373 H         1 <0>         0.0601
     56 H18         4.0497    0.8441   -7.0524 H         1 <0>         0.0688
     57 H19         4.6431    2.4675   -7.3320 H         1 <0>         0.0630
     58 H20         2.8170    1.9026   -2.3635 H         1 <0>         0.0807
     59 H21         1.9588    2.8453   -3.5837 H         1 <0>         0.0380
     60 H22         3.3744    3.3723   -5.7123 H         1 <0>         0.0484
     61 H23         2.4818    1.8533   -5.7569 H         1 <0>         0.0697
     62 H24         5.7646    4.3810   -3.0694 H         1 <0>         0.0843
     63 H25         1.7819    1.7076   -0.3790 H         1 <0>         0.0831
     64 H26         7.8868    1.0311   -6.5450 H         1 <0>         0.0704
     65 H27         7.0672    2.3317   -7.3854 H         1 <0>         0.0718
     66 H28         8.4445    3.0306    2.5915 H         1 <0>         0.0606
     67 H29         6.9275    3.2007    3.4679 H         1 <0>         0.0458
     68 H30         9.0354    5.3625    3.0356 H         1 <0>         0.0375
     69 H31         7.5157    5.6329    3.8824 H         1 <0>         0.0392
     70 H32         7.7210    4.7221    0.9235 H         1 <0>         0.0606
     71 H33         6.2174    4.9831    1.8035 H         1 <0>         0.0579
     72 H34         9.7251    3.6753    4.7403 H         1 <0>         0.0571
     73 H35         8.1937    3.8977    5.5994 H         1 <0>         0.0503
     74 H36         7.0421    2.3587    0.4881 H         1 <0>         0.0993
     75 H37         4.9287   -0.2795   -4.8849 H         1 <0>         0.3700
     76 H38         6.6336   -0.5056   -5.1950 H         1 <0>         0.3660
     77 H39        10.0430    5.3371    6.4969 H         1 <0>         0.3465
     78 H40         9.1331    6.4373    5.4892 H         1 <0>         0.3446
     79 H41         4.0528    0.3153    0.8455 H         1 <0>         0.3148
     80 H42         5.4441    4.5531   -0.5557 H         1 <0>         0.3220
@<TRIPOS>BOND
     1    1    2 ar
     2    1    3 ar
     3    2    4 ar
     4    3    5 ar
     5    4    6 ar
     6    5    6 ar
     7    6   23 1
     8    7   22 1
     9    7   29 am
    10    7   35 2
    11    8    9 1
    12    8   28 1
    13    8   36 2
    14    9   33 am
    15    9   37 2
    16   10   20 1
    17   10   34 am
    18   10   38 2
    19   11   12 1
    20   11   13 1
    21   12   14 1
    22   13   15 1
    23   14   21 1
    24   15   21 1
    25   16   18 1
    26   16   20 1
    27   17   19 1
    28   17   22 1
    29   18   30 1
    30   19   30 1
    31   20   29 1
    32   21   33 1
    33   22   23 1
    34   22   31 1
    35   24   25 1
    36   24   26 1
    37   25   27 1
    38   26   28 1
    39   27   32 1
    40   28   34 1
    41   29   30 1
    42    1   39 1
    43    2   40 1
    44    3   41 1
    45    4   42 1
    46    5   43 1
    47   11   44 1
    48   11   45 1
    49   12   46 1
    50   12   47 1
    51   13   48 1
    52   13   49 1
    53   14   50 1
    54   14   51 1
    55   15   52 1
    56   15   53 1
    57   16   54 1
    58   16   55 1
    59   17   56 1
    60   17   57 1
    61   18   58 1
    62   18   59 1
    63   19   60 1
    64   19   61 1
    65   20   62 1
    66   21   63 1
    67   23   64 1
    68   23   65 1
    69   24   66 1
    70   24   67 1
    71   25   68 1
    72   25   69 1
    73   26   70 1
    74   26   71 1
    75   27   72 1
    76   27   73 1
    77   28   74 1
    78   31   75 1
    79   31   76 1
    80   32   77 1
    81   32   78 1
    82   33   79 1
    83   34   80 1
@<TRIPOS>MOLECULE
1a46_ligand_135
   80    83     0     0     0
SMALL
USER_CHARGES

mmff94s_NoEstat = 83.92
@<TRIPOS>ATOM
      1 C1         -4.4072   -3.0319  -14.4211 C.ar      1 <0>        -0.1300
      2 C2         -3.1014   -2.5683  -14.5810 C.ar      1 <0>        -0.1323
      3 C3         -5.2666   -2.3997  -13.5224 C.ar      1 <0>        -0.1309
      4 C4         -2.6549   -1.4727  -13.8421 C.ar      1 <0>        -0.1275
      5 C5         -4.8200   -1.3041  -12.7835 C.ar      1 <0>        -0.1272
      6 C6         -3.5171   -0.8478  -12.9482 C.ar      1 <0>        -0.0843
      7 C7         -1.9267    1.0916  -10.0042 C.2       1 <0>         0.6709
      8 C8          2.7796    3.2097   -6.1637 C.2       1 <0>         0.4867
      9 C9          4.2587    3.4565   -6.1009 C.2       1 <0>         0.5883
     10 C10         0.2181    1.9581   -7.7739 C.2       1 <0>         0.6572
     11 C11         7.9156    6.8463   -4.0149 C.3       1 <0>        -0.0802
     12 C12         7.7166    6.5257   -5.4936 C.3       1 <0>        -0.0765
     13 C13         7.5771    5.6508   -3.1289 C.3       1 <0>        -0.0774
     14 C14         6.3087    6.0018   -5.7721 C.3       1 <0>        -0.0953
     15 C15         6.1688    5.1265   -3.4043 C.3       1 <0>        -0.0906
     16 C16        -1.6423    1.0361   -6.3687 C.3       1 <0>        -0.0871
     17 C17        -3.4475   -0.9240   -9.9997 C.3       1 <0>        -0.0716
     18 C18        -1.5606   -0.4439   -6.7372 C.3       1 <0>         0.1333
     19 C19        -3.1819   -0.9495   -8.4846 C.3       1 <0>         0.1246
     20 C20        -1.2590    1.7411   -7.6524 C.3       1 <0>         0.0606
     21 C21         5.9772    4.7944   -4.8882 C.3       1 <0>         0.1012
     22 C22        -2.4199   -0.1108  -10.8216 C.3       1 <0>         0.1554
     23 C23        -3.0368    0.3307  -12.1535 C.3       1 <0>        -0.0356
     24 C24         1.5857    6.0302   -6.5865 C.3       1 <0>        -0.0795
     25 C25         1.6811    7.5259   -6.9095 C.3       1 <0>        -0.1203
     26 C26         2.1570    5.1335   -7.6933 C.3       1 <0>        -0.0920
     27 C27         1.0885    8.4192   -5.8200 C.3       1 <0>         0.1502
     28 C28         2.0196    3.6328   -7.4097 C.3       1 <0>         0.0224
     29 N1         -1.6352    0.7917   -8.6825 N.am      1 <0>        -0.3553
     30 N2         -1.8196   -0.5121   -8.1858 N.3       1 <0>        -0.4320
     31 N3         -1.2259   -0.9195  -11.1076 N.3       1 <0>        -0.9031
     32 N4          1.8018    8.2205   -4.5627 N.3       1 <0>        -0.9068
     33 N5          4.6003    4.3666   -5.1278 N.am      1 <0>        -0.5526
     34 N6          0.6426    3.2153   -7.3763 N.am      1 <0>        -0.5576
     35 O1         -1.7935    2.2123  -10.4955 O.2       1 <0>        -0.6710
     36 O2          2.2586    2.7495   -5.1557 O.2       1 <0>        -0.4901
     37 O3          4.9711    2.8677   -6.8975 O.2       1 <0>        -0.5902
     38 O4          0.9290    1.0536   -8.1959 O.2       1 <0>        -0.5833
     39 H1         -4.7549   -3.8850  -14.9963 H         1 <0>         0.1320
     40 H2         -2.4324   -3.0606  -15.2808 H         1 <0>         0.1324
     41 H3         -6.2832   -2.7609  -13.3979 H         1 <0>         0.1328
     42 H4         -1.6358   -1.1186  -13.9733 H         1 <0>         0.1324
     43 H5         -5.4966   -0.8180  -12.0857 H         1 <0>         0.1434
     44 H6          8.9532    7.1525   -3.8404 H         1 <0>         0.0405
     45 H7          7.2800    7.6964   -3.7380 H         1 <0>         0.0421
     46 H8          7.9007    7.4241   -6.0935 H         1 <0>         0.0362
     47 H9          8.4527    5.7753   -5.8072 H         1 <0>         0.0439
     48 H10         8.3049    4.8487   -3.3029 H         1 <0>         0.0350
     49 H11         7.6637    5.9374   -2.0747 H         1 <0>         0.0428
     50 H12         5.5802    6.8049   -5.5990 H         1 <0>         0.0663
     51 H13         6.2211    5.7267   -6.8302 H         1 <0>         0.0466
     52 H14         5.9826    4.2344   -2.7939 H         1 <0>         0.0493
     53 H15         5.4322    5.8774   -3.0896 H         1 <0>         0.0520
     54 H16        -2.6779    1.2865   -6.1074 H         1 <0>         0.0915
     55 H17        -0.9998    1.2887   -5.5196 H         1 <0>         0.0601
     56 H18        -3.4897   -1.9539  -10.3797 H         1 <0>         0.0688
     57 H19        -4.4523   -0.5086  -10.1558 H         1 <0>         0.0630
     58 H20        -0.5419   -0.8072   -6.5560 H         1 <0>         0.0807
     59 H21        -2.2364   -1.0589   -6.1327 H         1 <0>         0.0380
     60 H22        -3.9187   -0.3080   -7.9817 H         1 <0>         0.0484
     61 H23        -3.3442   -1.9688   -8.1140 H         1 <0>         0.0697
     62 H24        -1.7661    2.6997   -7.7936 H         1 <0>         0.0843
     63 H25         6.6149    3.9465   -5.1640 H         1 <0>         0.0831
     64 H26        -2.2923    0.8934  -12.7197 H         1 <0>         0.0704
     65 H27        -3.8625    1.0157  -11.9521 H         1 <0>         0.0718
     66 H28         2.1358    5.8550   -5.6547 H         1 <0>         0.0606
     67 H29         0.5392    5.7688   -6.3906 H         1 <0>         0.0458
     68 H30         2.7419    7.7748   -7.0444 H         1 <0>         0.0375
     69 H31         1.1870    7.7255   -7.8687 H         1 <0>         0.0392
     70 H32         3.2164    5.3787   -7.8393 H         1 <0>         0.0606
     71 H33         1.6466    5.3535   -8.6384 H         1 <0>         0.0579
     72 H34         0.0275    8.1885   -5.6755 H         1 <0>         0.0571
     73 H35         1.1682    9.4739   -6.0992 H         1 <0>         0.0503
     74 H36         2.4714    3.0747   -8.2388 H         1 <0>         0.0993
     75 H37        -0.9249   -1.5612  -10.4112 H         1 <0>         0.3700
     76 H38        -0.6609   -0.6518  -11.8799 H         1 <0>         0.3660
     77 H39         1.4387    8.6562   -3.7421 H         1 <0>         0.3465
     78 H40         2.7216    7.8360   -4.5996 H         1 <0>         0.3446
     79 H41         3.8628    4.7589   -4.5500 H         1 <0>         0.3148
     80 H42        -0.0552    3.8781   -7.0434 H         1 <0>         0.3220
@<TRIPOS>BOND
     1    1    2 ar
     2    1    3 ar
     3    2    4 ar
     4    3    5 ar
     5    4    6 ar
     6    5    6 ar
     7    6   23 1
     8    7   22 1
     9    7   29 am
    10    7   35 2
    11    8    9 1
    12    8   28 1
    13    8   36 2
    14    9   33 am
    15    9   37 2
    16   10   20 1
    17   10   34 am
    18   10   38 2
    19   11   12 1
    20   11   13 1
    21   12   14 1
    22   13   15 1
    23   14   21 1
    24   15   21 1
    25   16   18 1
    26   16   20 1
    27   17   19 1
    28   17   22 1
    29   18   30 1
    30   19   30 1
    31   20   29 1
    32   21   33 1
    33   22   23 1
    34   22   31 1
    35   24   25 1
    36   24   26 1
    37   25   27 1
    38   26   28 1
    39   27   32 1
    40   28   34 1
    41   29   30 1
    42    1   39 1
    43    2   40 1
    44    3   41 1
    45    4   42 1
    46    5   43 1
    47   11   44 1
    48   11   45 1
    49   12   46 1
    50   12   47 1
    51   13   48 1
    52   13   49 1
    53   14   50 1
    54   14   51 1
    55   15   52 1
    56   15   53 1
    57   16   54 1
    58   16   55 1
    59   17   56 1
    60   17   57 1
    61   18   58 1
    62   18   59 1
    63   19   60 1
    64   19   61 1
    65   20   62 1
    66   21   63 1
    67   23   64 1
    68   23   65 1
    69   24   66 1
    70   24   67 1
    71   25   68 1
    72   25   69 1
    73   26   70 1
    74   26   71 1
    75   27   72 1
    76   27   73 1
    77   28   74 1
    78   31   75 1
    79   31   76 1
    80   32   77 1
    81   32   78 1
    82   33   79 1
    83   34   80 1
@<TRIPOS>MOLECULE
1a46_ligand_136
   80    83     0     0     0
SMALL
USER_CHARGES

mmff94s_NoEstat = 83.92
@<TRIPOS>ATOM
      1 C1         -4.2961    6.3604   -2.7495 C.ar      1 <0>        -0.1300
      2 C2         -3.8917    5.7888   -1.5431 C.ar      1 <0>        -0.1323
      3 C3         -3.4839    6.2539   -3.8786 C.ar      1 <0>        -0.1309
      4 C4         -2.6752    5.1109   -1.4657 C.ar      1 <0>        -0.1275
      5 C5         -2.2674    5.5759   -3.8012 C.ar      1 <0>        -0.1272
      6 C6         -1.8709    5.0088   -2.5952 C.ar      1 <0>        -0.0843
      7 C7          1.9202    4.4855   -2.0375 C.2       1 <0>         0.6709
      8 C8          5.2358    2.3798    1.5634 C.2       1 <0>         0.4867
      9 C9          5.6457    1.7076    2.8411 C.2       1 <0>         0.5883
     10 C10         4.7954    4.5647   -0.6048 C.2       1 <0>         0.6572
     11 C11         7.4984   -2.8604    2.5281 C.3       1 <0>        -0.0802
     12 C12         6.0870   -2.3778    2.8521 C.3       1 <0>        -0.0765
     13 C13         8.4450   -1.6988    2.2377 C.3       1 <0>        -0.0774
     14 C14         6.0898   -1.3509    3.9853 C.3       1 <0>        -0.0953
     15 C15         8.4424   -0.6737    3.3726 C.3       1 <0>        -0.0906
     16 C16         5.1345    6.1376   -2.5274 C.3       1 <0>        -0.0871
     17 C17         0.6797    6.3873   -3.1418 C.3       1 <0>        -0.0716
     18 C18         4.2227    7.2889   -2.1078 C.3       1 <0>         0.1333
     19 C19         2.0578    7.0682   -3.2043 C.3       1 <0>         0.1246
     20 C20         4.4137    4.9104   -2.0113 C.3       1 <0>         0.0606
     21 C21         7.0342   -0.1713    3.7178 C.3       1 <0>         0.1012
     22 C22         0.5786    5.2268   -2.1241 C.3       1 <0>         0.1554
     23 C23        -0.5623    4.2796   -2.5120 C.3       1 <0>        -0.0356
     24 C24         8.0800    4.9598    0.7851 C.3       1 <0>        -0.0795
     25 C25         8.7880    6.0338    1.6192 C.3       1 <0>        -0.1203
     26 C26         6.9719    4.2276    1.5544 C.3       1 <0>        -0.0920
     27 C27         9.9095    6.7454    0.8629 C.3       1 <0>         0.1502
     28 C28         6.2906    3.1130    0.7514 C.3       1 <0>         0.0224
     29 N1          3.0235    5.3233   -1.9852 N.am      1 <0>        -0.3553
     30 N2          2.8653    6.7208   -2.0365 N.3       1 <0>        -0.4320
     31 N3          0.3159    5.7420   -0.7724 N.3       1 <0>        -0.9031
     32 N4         10.5470    7.7366    1.7233 N.3       1 <0>        -0.9068
     33 N5          6.5118    0.6599    2.6310 N.am      1 <0>        -0.5526
     34 N6          5.7762    3.5917   -0.5046 N.am      1 <0>        -0.5576
     35 O1          1.9934    3.2573   -2.0040 O.2       1 <0>        -0.6710
     36 O2          4.0412    2.3628    1.2952 O.2       1 <0>        -0.4901
     37 O3          5.1730    2.1266    3.8850 O.2       1 <0>        -0.5902
     38 O4          4.2448    5.1367    0.3286 O.2       1 <0>        -0.5833
     39 H1         -5.2433    6.8883   -2.8098 H         1 <0>         0.1320
     40 H2         -4.5242    5.8718   -0.6641 H         1 <0>         0.1324
     41 H3         -3.7988    6.6991   -4.8178 H         1 <0>         0.1328
     42 H4         -2.3683    4.6687   -0.5215 H         1 <0>         0.1324
     43 H5         -1.6411    5.4981   -4.6860 H         1 <0>         0.1434
     44 H6          7.8861   -3.4409    3.3744 H         1 <0>         0.0405
     45 H7          7.4684   -3.5363    1.6660 H         1 <0>         0.0421
     46 H8          5.6358   -1.9383    1.9543 H         1 <0>         0.0362
     47 H9          5.4623   -3.2331    3.1340 H         1 <0>         0.0439
     48 H10         9.4616   -2.0812    2.0913 H         1 <0>         0.0350
     49 H11         8.1510   -1.2136    1.2991 H         1 <0>         0.0428
     50 H12         5.0674   -0.9870    4.1440 H         1 <0>         0.0663
     51 H13         6.3973   -1.8492    4.9135 H         1 <0>         0.0466
     52 H14         8.8852   -1.1330    4.2655 H         1 <0>         0.0493
     53 H15         9.0866    0.1701    3.0968 H         1 <0>         0.0520
     54 H16         5.1868    6.0993   -3.6226 H         1 <0>         0.0915
     55 H17         6.1502    6.2483   -2.1355 H         1 <0>         0.0601
     56 H18        -0.0889    7.1398   -2.9187 H         1 <0>         0.0688
     57 H19         0.4458    6.0134   -4.1479 H         1 <0>         0.0630
     58 H20         4.5037    7.6265   -1.1030 H         1 <0>         0.0807
     59 H21         4.3115    8.1522   -2.7765 H         1 <0>         0.0380
     60 H22         2.5627    6.7687   -4.1331 H         1 <0>         0.0484
     61 H23         1.9139    8.1541   -3.2580 H         1 <0>         0.0697
     62 H24         4.5519    4.0254   -2.6387 H         1 <0>         0.0843
     63 H25         7.0767    0.4778    4.5987 H         1 <0>         0.0831
     64 H26        -0.6211    3.4755   -1.7762 H         1 <0>         0.0704
     65 H27        -0.3254    3.8127   -3.4698 H         1 <0>         0.0718
     66 H28         7.6494    5.4516   -0.0948 H         1 <0>         0.0606
     67 H29         8.8216    4.2418    0.4157 H         1 <0>         0.0458
     68 H30         8.0356    6.7709    1.9287 H         1 <0>         0.0375
     69 H31         9.1825    5.5824    2.5383 H         1 <0>         0.0392
     70 H32         6.2171    4.9575    1.8728 H         1 <0>         0.0606
     71 H33         7.3929    3.7874    2.4660 H         1 <0>         0.0579
     72 H34         9.5108    7.2416   -0.0285 H         1 <0>         0.0571
     73 H35        10.6706    6.0303    0.5375 H         1 <0>         0.0503
     74 H36         7.0421    2.3587    0.4881 H         1 <0>         0.0993
     75 H37         0.7364    6.6054   -0.5173 H         1 <0>         0.3700
     76 H38        -0.0926    5.1211   -0.1128 H         1 <0>         0.3660
     77 H39        11.2163    8.3531    1.3147 H         1 <0>         0.3465
     78 H40        10.4498    7.6340    2.7108 H         1 <0>         0.3446
     79 H41         6.8020    0.4535    1.6799 H         1 <0>         0.3148
     80 H42         6.1527    3.1949   -1.3636 H         1 <0>         0.3220
@<TRIPOS>BOND
     1    1    2 ar
     2    1    3 ar
     3    2    4 ar
     4    3    5 ar
     5    4    6 ar
     6    5    6 ar
     7    6   23 1
     8    7   22 1
     9    7   29 am
    10    7   35 2
    11    8    9 1
    12    8   28 1
    13    8   36 2
    14    9   33 am
    15    9   37 2
    16   10   20 1
    17   10   34 am
    18   10   38 2
    19   11   12 1
    20   11   13 1
    21   12   14 1
    22   13   15 1
    23   14   21 1
    24   15   21 1
    25   16   18 1
    26   16   20 1
    27   17   19 1
    28   17   22 1
    29   18   30 1
    30   19   30 1
    31   20   29 1
    32   21   33 1
    33   22   23 1
    34   22   31 1
    35   24   25 1
    36   24   26 1
    37   25   27 1
    38   26   28 1
    39   27   32 1
    40   28   34 1
    41   29   30 1
    42    1   39 1
    43    2   40 1
    44    3   41 1
    45    4   42 1
    46    5   43 1
    47   11   44 1
    48   11   45 1
    49   12   46 1
    50   12   47 1
    51   13   48 1
    52   13   49 1
    53   14   50 1
    54   14   51 1
    55   15   52 1
    56   15   53 1
    57   16   54 1
    58   16   55 1
    59   17   56 1
    60   17   57 1
    61   18   58 1
    62   18   59 1
    63   19   60 1
    64   19   61 1
    65   20   62 1
    66   21   63 1
    67   23   64 1
    68   23   65 1
    69   24   66 1
    70   24   67 1
    71   25   68 1
    72   25   69 1
    73   26   70 1
    74   26   71 1
    75   27   72 1
    76   27   73 1
    77   28   74 1
    78   31   75 1
    79   31   76 1
    80   32   77 1
    81   32   78 1
    82   33   79 1
    83   34   80 1
@<TRIPOS>MOLECULE
1a46_ligand_137
   80    83     0     0     0
SMALL
USER_CHARGES

mmff94s_NoEstat = 83.99
@<TRIPOS>ATOM
      1 C1         -2.6445   10.2618   -2.2387 C.ar      1 <0>        -0.1300
      2 C2         -2.3767    9.6884   -0.9957 C.ar      1 <0>        -0.1323
      3 C3         -2.1497    9.6701   -3.4009 C.ar      1 <0>        -0.1309
      4 C4         -1.6141    8.5233   -0.9148 C.ar      1 <0>        -0.1275
      5 C5         -1.3871    8.5049   -3.3201 C.ar      1 <0>        -0.1272
      6 C6         -1.1243    7.9391   -2.0776 C.ar      1 <0>        -0.0843
      7 C7          2.0326    5.7272   -1.7627 C.2       1 <0>         0.6709
      8 C8          5.2358    2.3798    1.5634 C.2       1 <0>         0.4867
      9 C9          5.6457    1.7076    2.8411 C.2       1 <0>         0.5883
     10 C10         4.7954    4.5647   -0.6048 C.2       1 <0>         0.6572
     11 C11         5.0414    4.2280    7.0457 C.3       1 <0>        -0.0802
     12 C12         6.2748    4.0372    6.1670 C.3       1 <0>        -0.0765
     13 C13         3.8167    3.5224    6.4694 C.3       1 <0>        -0.0774
     14 C14         6.5482    2.5574    5.8946 C.3       1 <0>        -0.0953
     15 C15         4.0959    2.0437    6.1966 C.3       1 <0>        -0.0906
     16 C16         5.5346    5.5870   -2.7713 C.3       1 <0>        -0.0871
     17 C17         1.6625    7.8714   -3.0437 C.3       1 <0>        -0.0716
     18 C18         5.3303    7.0689   -2.4625 C.3       1 <0>         0.1333
     19 C19         3.1731    7.8019   -3.3266 C.3       1 <0>         0.1246
     20 C20         4.4137    4.9104   -2.0113 C.3       1 <0>         0.0606
     21 C21         5.3317    1.8242    5.3139 C.3       1 <0>         0.1012
     22 C22         1.1885    7.0064   -1.8522 C.3       1 <0>         0.1554
     23 C23        -0.3040    6.6858   -1.9906 C.3       1 <0>        -0.0356
     24 C24         8.0800    4.9598    0.7851 C.3       1 <0>        -0.0795
     25 C25         8.7880    6.0338    1.6192 C.3       1 <0>        -0.1203
     26 C26         6.9719    4.2276    1.5544 C.3       1 <0>        -0.0920
     27 C27         9.9095    6.7454    0.8629 C.3       1 <0>         0.1502
     28 C28         6.2906    3.1130    0.7514 C.3       1 <0>         0.0224
     29 N1          3.3921    5.9372   -1.9343 N.am      1 <0>        -0.3553
     30 N2          3.8913    7.2279   -2.1903 N.3       1 <0>        -0.4320
     31 N3          1.3958    7.7147   -0.5806 N.3       1 <0>        -0.9031
     32 N4         10.5470    7.7366    1.7233 N.3       1 <0>        -0.9068
     33 N5          5.0674    2.2831    3.9484 N.am      1 <0>        -0.5526
     34 N6          5.7762    3.5917   -0.5046 N.am      1 <0>        -0.5576
     35 O1          1.5345    4.6231   -1.5437 O.2       1 <0>        -0.6710
     36 O2          4.0412    2.3628    1.2952 O.2       1 <0>        -0.4901
     37 O3          6.4307    0.7761    2.7710 O.2       1 <0>        -0.5902
     38 O4          4.2448    5.1367    0.3286 O.2       1 <0>        -0.5833
     39 H1         -3.2382   11.1691   -2.3016 H         1 <0>         0.1320
     40 H2         -2.7620   10.1493   -0.0908 H         1 <0>         0.1324
     41 H3         -2.3582   10.1168   -4.3687 H         1 <0>         0.1328
     42 H4         -1.4106    8.0836    0.0580 H         1 <0>         0.1324
     43 H5         -1.0058    8.0510   -4.2309 H         1 <0>         0.1434
     44 H6          5.2471    3.8352    8.0492 H         1 <0>         0.0405
     45 H7          4.8314    5.2975    7.1597 H         1 <0>         0.0421
     46 H8          6.1338    4.5692    5.2184 H         1 <0>         0.0362
     47 H9          7.1467    4.4871    6.6556 H         1 <0>         0.0439
     48 H10         2.9773    3.6143    7.1680 H         1 <0>         0.0350
     49 H11         3.5117    4.0197    5.5408 H         1 <0>         0.0428
     50 H12         7.4029    2.4687    5.2130 H         1 <0>         0.0663
     51 H13         6.8401    2.0726    6.8349 H         1 <0>         0.0466
     52 H14         4.2467    1.5293    7.1543 H         1 <0>         0.0493
     53 H15         3.2132    1.5912    5.7287 H         1 <0>         0.0520
     54 H16         5.4011    5.4209   -3.8475 H         1 <0>         0.0915
     55 H17         6.5319    5.2374   -2.4876 H         1 <0>         0.0601
     56 H18         1.3705    8.9173   -2.8778 H         1 <0>         0.0688
     57 H19         1.1370    7.5576   -3.9559 H         1 <0>         0.0630
     58 H20         5.8802    7.3284   -1.5498 H         1 <0>         0.0807
     59 H21         5.7080    7.7145   -3.2631 H         1 <0>         0.0380
     60 H22         3.3395    7.2079   -4.2360 H         1 <0>         0.0484
     61 H23         3.5406    8.8134   -3.5374 H         1 <0>         0.0697
     62 H24         4.0335    4.0099   -2.5019 H         1 <0>         0.0843
     63 H25         5.5463    0.7533    5.2346 H         1 <0>         0.0831
     64 H26        -0.6181    6.0842   -1.1357 H         1 <0>         0.0704
     65 H27        -0.4536    6.0709   -2.8800 H         1 <0>         0.0718
     66 H28         7.6494    5.4516   -0.0948 H         1 <0>         0.0606
     67 H29         8.8216    4.2418    0.4157 H         1 <0>         0.0458
     68 H30         8.0356    6.7709    1.9287 H         1 <0>         0.0375
     69 H31         9.1825    5.5824    2.5383 H         1 <0>         0.0392
     70 H32         6.2171    4.9575    1.8728 H         1 <0>         0.0606
     71 H33         7.3929    3.7874    2.4660 H         1 <0>         0.0579
     72 H34         9.5108    7.2416   -0.0285 H         1 <0>         0.0571
     73 H35        10.6706    6.0303    0.5375 H         1 <0>         0.0503
     74 H36         7.0421    2.3587    0.4881 H         1 <0>         0.0993
     75 H37         2.1998    8.2929   -0.4996 H         1 <0>         0.3700
     76 H38         0.8492    7.4324    0.1998 H         1 <0>         0.3660
     77 H39        11.2163    8.3531    1.3147 H         1 <0>         0.3465
     78 H40        10.4498    7.6340    2.7108 H         1 <0>         0.3446
     79 H41         4.4287    3.0611    3.8132 H         1 <0>         0.3148
     80 H42         6.1527    3.1949   -1.3636 H         1 <0>         0.3220
@<TRIPOS>BOND
     1    1    2 ar
     2    1    3 ar
     3    2    4 ar
     4    3    5 ar
     5    4    6 ar
     6    5    6 ar
     7    6   23 1
     8    7   22 1
     9    7   29 am
    10    7   35 2
    11    8    9 1
    12    8   28 1
    13    8   36 2
    14    9   33 am
    15    9   37 2
    16   10   20 1
    17   10   34 am
    18   10   38 2
    19   11   12 1
    20   11   13 1
    21   12   14 1
    22   13   15 1
    23   14   21 1
    24   15   21 1
    25   16   18 1
    26   16   20 1
    27   17   19 1
    28   17   22 1
    29   18   30 1
    30   19   30 1
    31   20   29 1
    32   21   33 1
    33   22   23 1
    34   22   31 1
    35   24   25 1
    36   24   26 1
    37   25   27 1
    38   26   28 1
    39   27   32 1
    40   28   34 1
    41   29   30 1
    42    1   39 1
    43    2   40 1
    44    3   41 1
    45    4   42 1
    46    5   43 1
    47   11   44 1
    48   11   45 1
    49   12   46 1
    50   12   47 1
    51   13   48 1
    52   13   49 1
    53   14   50 1
    54   14   51 1
    55   15   52 1
    56   15   53 1
    57   16   54 1
    58   16   55 1
    59   17   56 1
    60   17   57 1
    61   18   58 1
    62   18   59 1
    63   19   60 1
    64   19   61 1
    65   20   62 1
    66   21   63 1
    67   23   64 1
    68   23   65 1
    69   24   66 1
    70   24   67 1
    71   25   68 1
    72   25   69 1
    73   26   70 1
    74   26   71 1
    75   27   72 1
    76   27   73 1
    77   28   74 1
    78   31   75 1
    79   31   76 1
    80   32   77 1
    81   32   78 1
    82   33   79 1
    83   34   80 1
@<TRIPOS>MOLECULE
1a46_ligand_138
   80    83     0     0     0
SMALL
USER_CHARGES

mmff94s_NoEstat = 84.00
@<TRIPOS>ATOM
      1 C1         -5.9518    1.0529  -15.7574 C.ar      1 <0>        -0.1300
      2 C2         -4.7078    1.6646  -15.9115 C.ar      1 <0>        -0.1323
      3 C3         -6.6077    1.1063  -14.5275 C.ar      1 <0>        -0.1309
      4 C4         -4.1196    2.3297  -14.8357 C.ar      1 <0>        -0.1275
      5 C5         -6.0195    1.7714  -13.4517 C.ar      1 <0>        -0.1272
      6 C6         -4.7793    2.3787  -13.6128 C.ar      1 <0>        -0.0843
      7 C7         -2.6173    2.8751  -10.4447 C.2       1 <0>         0.6709
      8 C8          2.7796    3.2097   -6.1637 C.2       1 <0>         0.4867
      9 C9          4.2587    3.4565   -6.1009 C.2       1 <0>         0.5883
     10 C10        -0.0591    2.8141   -8.5012 C.2       1 <0>         0.6572
     11 C11         9.0053    0.8731   -6.2061 C.3       1 <0>        -0.0802
     12 C12         8.4913    1.7799   -5.0913 C.3       1 <0>        -0.0765
     13 C13         8.4894    1.3135   -7.5731 C.3       1 <0>        -0.0774
     14 C14         6.9674    1.8856   -5.1085 C.3       1 <0>        -0.0953
     15 C15         6.9654    1.4180   -7.5931 C.3       1 <0>        -0.0906
     16 C16        -1.5879    1.1654   -7.3921 C.3       1 <0>        -0.0871
     17 C17        -4.1019    0.9486  -11.1228 C.3       1 <0>        -0.0716
     18 C18        -1.5823    0.0424   -8.4274 C.3       1 <0>         0.1333
     19 C19        -3.5290    0.2485   -9.8784 C.3       1 <0>         0.1246
     20 C20        -1.4789    2.4202   -8.2321 C.3       1 <0>         0.0606
     21 C21         6.4545    2.3390   -6.4798 C.3       1 <0>         0.1012
     22 C22        -3.2673    2.1480  -11.6303 C.3       1 <0>         0.1554
     23 C23        -4.1466    3.0941  -12.4556 C.3       1 <0>        -0.0356
     24 C24         1.5857    6.0302   -6.5865 C.3       1 <0>        -0.0795
     25 C25         1.6811    7.5259   -6.9095 C.3       1 <0>        -0.1203
     26 C26         2.1570    5.1335   -7.6933 C.3       1 <0>        -0.0920
     27 C27         1.0885    8.4192   -5.8200 C.3       1 <0>         0.1502
     28 C28         2.0196    3.6328   -7.4097 C.3       1 <0>         0.0224
     29 N1         -2.0587    2.0261   -9.5019 N.am      1 <0>        -0.3553
     30 N2         -2.1349    0.6298   -9.6602 N.3       1 <0>        -0.4320
     31 N3         -2.1572    1.6877  -12.4773 N.3       1 <0>        -0.9031
     32 N4          1.8018    8.2205   -4.5627 N.3       1 <0>        -0.9068
     33 N5          4.9930    2.3577   -6.4821 N.am      1 <0>        -0.5526
     34 N6          0.6426    3.2153   -7.3763 N.am      1 <0>        -0.5576
     35 O1         -2.5899    4.1027  -10.3594 O.2       1 <0>        -0.6710
     36 O2          2.2586    2.7495   -5.1557 O.2       1 <0>        -0.4901
     37 O3          4.6403    4.5493   -5.7150 O.2       1 <0>        -0.5902
     38 O4          0.3766    2.7593   -9.6452 O.2       1 <0>        -0.5833
     39 H1         -6.4098    0.5350  -16.5951 H         1 <0>         0.1320
     40 H2         -4.1972    1.6230  -16.8692 H         1 <0>         0.1324
     41 H3         -7.5763    0.6298  -14.4076 H         1 <0>         0.1328
     42 H4         -3.1501    2.8034  -14.9651 H         1 <0>         0.1324
     43 H5         -6.5379    1.8077  -12.4972 H         1 <0>         0.1434
     44 H6         10.1011    0.8751   -6.2073 H         1 <0>         0.0405
     45 H7          8.6872   -0.1586   -6.0118 H         1 <0>         0.0421
     46 H8          8.8230    1.3947   -4.1205 H         1 <0>         0.0362
     47 H9          8.9268    2.7803   -5.2041 H         1 <0>         0.0439
     48 H10         8.9247    2.2864   -7.8324 H         1 <0>         0.0350
     49 H11         8.8198    0.6018   -8.3382 H         1 <0>         0.0428
     50 H12         6.5316    0.9120   -4.8479 H         1 <0>         0.0663
     51 H13         6.6386    2.5895   -4.3342 H         1 <0>         0.0466
     52 H14         6.6353    1.7924   -8.5698 H         1 <0>         0.0493
     53 H15         6.5298    0.4163   -7.4811 H         1 <0>         0.0520
     54 H16        -2.5475    1.1615   -6.8606 H         1 <0>         0.0915
     55 H17        -0.7842    1.0569   -6.6575 H         1 <0>         0.0601
     56 H18        -4.2204    0.2148  -11.9317 H         1 <0>         0.0688
     57 H19        -5.1178    1.2870  -10.8778 H         1 <0>         0.0630
     58 H20        -0.5477   -0.2605   -8.6286 H         1 <0>         0.0807
     59 H21        -2.1179   -0.8467   -8.0766 H         1 <0>         0.0380
     60 H22        -4.1468    0.5063   -9.0071 H         1 <0>         0.0484
     61 H23        -3.6100   -0.8367  -10.0142 H         1 <0>         0.0697
     62 H24        -2.0054    3.2790   -7.8063 H         1 <0>         0.0843
     63 H25         6.7753    3.3690   -6.6739 H         1 <0>         0.0831
     64 H26        -3.5359    3.9262  -12.8108 H         1 <0>         0.0704
     65 H27        -4.9137    3.5213  -11.8072 H         1 <0>         0.0718
     66 H28         2.1358    5.8550   -5.6547 H         1 <0>         0.0606
     67 H29         0.5392    5.7688   -6.3906 H         1 <0>         0.0458
     68 H30         2.7419    7.7748   -7.0444 H         1 <0>         0.0375
     69 H31         1.1870    7.7255   -7.8687 H         1 <0>         0.0392
     70 H32         3.2164    5.3787   -7.8393 H         1 <0>         0.0606
     71 H33         1.6466    5.3535   -8.6384 H         1 <0>         0.0579
     72 H34         0.0275    8.1885   -5.6755 H         1 <0>         0.0571
     73 H35         1.1682    9.4739   -6.0992 H         1 <0>         0.0503
     74 H36         2.4714    3.0747   -8.2388 H         1 <0>         0.0993
     75 H37        -1.7180    0.8294  -12.2371 H         1 <0>         0.3700
     76 H38        -1.7642    2.3382  -13.1175 H         1 <0>         0.3660
     77 H39         1.4387    8.6562   -3.7421 H         1 <0>         0.3465
     78 H40         2.7216    7.8360   -4.5996 H         1 <0>         0.3446
     79 H41         4.4975    1.5221   -6.7784 H         1 <0>         0.3148
     80 H42         0.1596    3.2148   -6.4798 H         1 <0>         0.3220
@<TRIPOS>BOND
     1    1    2 ar
     2    1    3 ar
     3    2    4 ar
     4    3    5 ar
     5    4    6 ar
     6    5    6 ar
     7    6   23 1
     8    7   22 1
     9    7   29 am
    10    7   35 2
    11    8    9 1
    12    8   28 1
    13    8   36 2
    14    9   33 am
    15    9   37 2
    16   10   20 1
    17   10   34 am
    18   10   38 2
    19   11   12 1
    20   11   13 1
    21   12   14 1
    22   13   15 1
    23   14   21 1
    24   15   21 1
    25   16   18 1
    26   16   20 1
    27   17   19 1
    28   17   22 1
    29   18   30 1
    30   19   30 1
    31   20   29 1
    32   21   33 1
    33   22   23 1
    34   22   31 1
    35   24   25 1
    36   24   26 1
    37   25   27 1
    38   26   28 1
    39   27   32 1
    40   28   34 1
    41   29   30 1
    42    1   39 1
    43    2   40 1
    44    3   41 1
    45    4   42 1
    46    5   43 1
    47   11   44 1
    48   11   45 1
    49   12   46 1
    50   12   47 1
    51   13   48 1
    52   13   49 1
    53   14   50 1
    54   14   51 1
    55   15   52 1
    56   15   53 1
    57   16   54 1
    58   16   55 1
    59   17   56 1
    60   17   57 1
    61   18   58 1
    62   18   59 1
    63   19   60 1
    64   19   61 1
    65   20   62 1
    66   21   63 1
    67   23   64 1
    68   23   65 1
    69   24   66 1
    70   24   67 1
    71   25   68 1
    72   25   69 1
    73   26   70 1
    74   26   71 1
    75   27   72 1
    76   27   73 1
    77   28   74 1
    78   31   75 1
    79   31   76 1
    80   32   77 1
    81   32   78 1
    82   33   79 1
    83   34   80 1
@<TRIPOS>MOLECULE
1a46_ligand_139
   80    83     0     0     0
SMALL
USER_CHARGES

mmff94s_NoEstat = 84.04
@<TRIPOS>ATOM
      1 C1          8.7841   12.3584   -5.8200 C.ar      1 <0>        -0.1300
      2 C2          9.2413   12.0197   -4.5466 C.ar      1 <0>        -0.1323
      3 C3          7.6186   11.7776   -6.3200 C.ar      1 <0>        -0.1309
      4 C4          8.5332   11.1000   -3.7731 C.ar      1 <0>        -0.1275
      5 C5          6.9105   10.8578   -5.5465 C.ar      1 <0>        -0.1272
      6 C6          7.3724   10.5251   -4.2781 C.ar      1 <0>        -0.0843
      7 C7          6.3227    7.0882   -2.8484 C.2       1 <0>         0.6709
      8 C8          5.2358    2.3798    1.5634 C.2       1 <0>         0.4867
      9 C9          5.6522    1.1980    2.3894 C.2       1 <0>         0.5883
     10 C10         6.5648    4.1956   -1.4701 C.2       1 <0>         0.6572
     11 C11         4.4021   -3.3160    0.8216 C.3       1 <0>        -0.0802
     12 C12         3.3214   -2.4910    1.5153 C.3       1 <0>        -0.0765
     13 C13         5.7197   -2.5530    0.7136 C.3       1 <0>        -0.0774
     14 C14         3.7927   -1.9768    2.8763 C.3       1 <0>        -0.0953
     15 C15         6.1855   -2.0390    2.0766 C.3       1 <0>        -0.0906
     16 C16         5.9150    3.5956   -3.8160 C.3       1 <0>        -0.0871
     17 C17         6.9686    7.7509   -5.1976 C.3       1 <0>        -0.0716
     18 C18         7.1782    4.0100   -4.5681 C.3       1 <0>         0.1333
     19 C19         6.8896    6.2440   -5.4973 C.3       1 <0>         0.1246
     20 C20         5.8189    4.6139   -2.6998 C.3       1 <0>         0.0606
     21 C21         5.1166   -1.2051    2.7954 C.3       1 <0>         0.1012
     22 C22         7.0990    8.1048   -3.6974 C.3       1 <0>         0.1554
     23 C23         6.6107    9.5357   -3.4460 C.3       1 <0>        -0.0356
     24 C24         6.0158    5.3379    2.0114 C.3       1 <0>        -0.0795
     25 C25         6.7209    6.4716    2.7653 C.3       1 <0>        -0.1203
     26 C26         6.9719    4.2276    1.5544 C.3       1 <0>        -0.0920
     27 C27         5.7742    7.5909    3.1979 C.3       1 <0>         0.1502
     28 C28         6.2906    3.1130    0.7514 C.3       1 <0>         0.0224
     29 N1          6.5058    5.7713   -3.2406 N.am      1 <0>        -0.3553
     30 N2          7.3227    5.4587   -4.3431 N.3       1 <0>        -0.4320
     31 N3          8.4993    8.0079   -3.2602 N.3       1 <0>        -0.9031
     32 N4          6.5168    8.6391    3.8900 N.3       1 <0>        -0.9068
     33 N5          4.9185    0.0703    2.1034 N.am      1 <0>        -0.5526
     34 N6          5.7762    3.5917   -0.5046 N.am      1 <0>        -0.5576
     35 O1          5.6162    7.4259   -1.8987 O.2       1 <0>        -0.6710
     36 O2          4.0675    2.7325    1.6631 O.2       1 <0>        -0.4901
     37 O3          6.5432    1.3575    3.2076 O.2       1 <0>        -0.5902
     38 O4          7.7705    4.4014   -1.3956 O.2       1 <0>        -0.5833
     39 H1          9.3355   13.0745   -6.4223 H         1 <0>         0.1320
     40 H2         10.1488   12.4721   -4.1574 H         1 <0>         0.1324
     41 H3          7.2628   12.0413   -7.3117 H         1 <0>         0.1328
     42 H4          8.8970   10.8421   -2.7820 H         1 <0>         0.1324
     43 H5          6.0035   10.4103   -5.9443 H         1 <0>         0.1434
     44 H6          4.5658   -4.2441    1.3831 H         1 <0>         0.0405
     45 H7          4.0603   -3.6053   -0.1786 H         1 <0>         0.0421
     46 H8          3.0404   -1.6452    0.8762 H         1 <0>         0.0362
     47 H9          2.4207   -3.1017    1.6461 H         1 <0>         0.0439
     48 H10         6.4885   -3.2066    0.2859 H         1 <0>         0.0350
     49 H11         5.5989   -1.7111    0.0213 H         1 <0>         0.0428
     50 H12         3.0117   -1.3414    3.3113 H         1 <0>         0.0663
     51 H13         3.9201   -2.8316    3.5526 H         1 <0>         0.0466
     52 H14         6.4506   -2.8975    2.7070 H         1 <0>         0.0493
     53 H15         7.0997   -1.4475    1.9449 H         1 <0>         0.0520
     54 H16         5.0489    3.6975   -4.4816 H         1 <0>         0.0915
     55 H17         5.9620    2.5605   -3.4641 H         1 <0>         0.0601
     56 H18         7.8089    8.1894   -5.7531 H         1 <0>         0.0688
     57 H19         6.0643    8.2210   -5.6074 H         1 <0>         0.0630
     58 H20         8.0462    3.5082   -4.1236 H         1 <0>         0.0807
     59 H21         7.1438    3.7229   -5.6248 H         1 <0>         0.0380
     60 H22         5.8587    5.9894   -5.7800 H         1 <0>         0.0484
     61 H23         7.5203    6.0225   -6.3666 H         1 <0>         0.0697
     62 H24         4.7909    4.8594   -2.4187 H         1 <0>         0.0843
     63 H25         5.4601   -0.9499    3.8034 H         1 <0>         0.0831
     64 H26         6.7207    9.7666   -2.3849 H         1 <0>         0.0704
     65 H27         5.5439    9.5911   -3.6710 H         1 <0>         0.0718
     66 H28         5.2579    4.9142    2.6804 H         1 <0>         0.0606
     67 H29         5.4809    5.7546    1.1500 H         1 <0>         0.0458
     68 H30         7.2000    6.0392    3.6534 H         1 <0>         0.0375
     69 H31         7.5258    6.8807    2.1417 H         1 <0>         0.0392
     70 H32         7.4599    3.7926    2.4354 H         1 <0>         0.0606
     71 H33         7.7645    4.6634    0.9347 H         1 <0>         0.0579
     72 H34         4.9986    7.1962    3.8630 H         1 <0>         0.0571
     73 H35         5.2784    8.0349    2.3297 H         1 <0>         0.0503
     74 H36         7.0421    2.3587    0.4881 H         1 <0>         0.0993
     75 H37         9.0611    7.2946   -3.6639 H         1 <0>         0.3700
     76 H38         8.7654    8.5137   -2.4473 H         1 <0>         0.3660
     77 H39         5.9996    9.3711    4.3277 H         1 <0>         0.3465
     78 H40         7.4997    8.7018    3.7315 H         1 <0>         0.3446
     79 H41         4.2076    0.1245    1.3800 H         1 <0>         0.3148
     80 H42         4.7816    3.4809   -0.6931 H         1 <0>         0.3220
@<TRIPOS>BOND
     1    1    2 ar
     2    1    3 ar
     3    2    4 ar
     4    3    5 ar
     5    4    6 ar
     6    5    6 ar
     7    6   23 1
     8    7   22 1
     9    7   29 am
    10    7   35 2
    11    8    9 1
    12    8   28 1
    13    8   36 2
    14    9   33 am
    15    9   37 2
    16   10   20 1
    17   10   34 am
    18   10   38 2
    19   11   12 1
    20   11   13 1
    21   12   14 1
    22   13   15 1
    23   14   21 1
    24   15   21 1
    25   16   18 1
    26   16   20 1
    27   17   19 1
    28   17   22 1
    29   18   30 1
    30   19   30 1
    31   20   29 1
    32   21   33 1
    33   22   23 1
    34   22   31 1
    35   24   25 1
    36   24   26 1
    37   25   27 1
    38   26   28 1
    39   27   32 1
    40   28   34 1
    41   29   30 1
    42    1   39 1
    43    2   40 1
    44    3   41 1
    45    4   42 1
    46    5   43 1
    47   11   44 1
    48   11   45 1
    49   12   46 1
    50   12   47 1
    51   13   48 1
    52   13   49 1
    53   14   50 1
    54   14   51 1
    55   15   52 1
    56   15   53 1
    57   16   54 1
    58   16   55 1
    59   17   56 1
    60   17   57 1
    61   18   58 1
    62   18   59 1
    63   19   60 1
    64   19   61 1
    65   20   62 1
    66   21   63 1
    67   23   64 1
    68   23   65 1
    69   24   66 1
    70   24   67 1
    71   25   68 1
    72   25   69 1
    73   26   70 1
    74   26   71 1
    75   27   72 1
    76   27   73 1
    77   28   74 1
    78   31   75 1
    79   31   76 1
    80   32   77 1
    81   32   78 1
    82   33   79 1
    83   34   80 1
@<TRIPOS>MOLECULE
1a46_ligand_140
   80    83     0     0     0
SMALL
USER_CHARGES

mmff94s_NoEstat = 84.04
@<TRIPOS>ATOM
      1 C1         11.0121    9.2104   -7.9325 C.ar      1 <0>        -0.1300
      2 C2         11.5385    8.8832   -6.6829 C.ar      1 <0>        -0.1323
      3 C3          9.6345    9.1559   -8.1449 C.ar      1 <0>        -0.1309
      4 C4         10.6874    8.5015   -5.6458 C.ar      1 <0>        -0.1275
      5 C5          8.7834    8.7742   -7.1078 C.ar      1 <0>        -0.1272
      6 C6          9.3154    8.4495   -5.8650 C.ar      1 <0>        -0.0843
      7 C7          7.2411    6.0968   -3.6024 C.2       1 <0>         0.6709
      8 C8          5.2358    2.3798    1.5634 C.2       1 <0>         0.4867
      9 C9          5.6522    1.1980    2.3894 C.2       1 <0>         0.5883
     10 C10         6.5256    3.6321   -1.6689 C.2       1 <0>         0.6572
     11 C11         5.0675   -3.3311    0.2851 C.3       1 <0>        -0.0802
     12 C12         3.9792   -2.6102    1.0762 C.3       1 <0>        -0.0765
     13 C13         6.3334   -2.4878    0.1590 C.3       1 <0>        -0.0774
     14 C14         4.4899   -2.1454    2.4407 C.3       1 <0>        -0.0953
     15 C15         6.8387   -2.0235    1.5257 C.3       1 <0>        -0.0906
     16 C16         5.2113    3.0694   -3.7284 C.3       1 <0>        -0.0871
     17 C17         7.6012    6.0599   -6.1012 C.3       1 <0>        -0.0716
     18 C18         6.3446    2.7580   -4.7039 C.3       1 <0>         0.1333
     19 C19         6.8355    4.7264   -6.0536 C.3       1 <0>         0.1246
     20 C20         5.7868    4.1659   -2.8575 C.3       1 <0>         0.0606
     21 C21         5.7630   -1.2944    2.3419 C.3       1 <0>         0.1012
     22 C22         8.1773    6.5224   -4.7422 C.3       1 <0>         0.1554
     23 C23         8.4000    8.0389   -4.7494 C.3       1 <0>        -0.0356
     24 C24         8.0800    4.9598    0.7851 C.3       1 <0>        -0.0795
     25 C25         8.7880    6.0338    1.6192 C.3       1 <0>        -0.1203
     26 C26         6.9719    4.2276    1.5544 C.3       1 <0>        -0.0920
     27 C27         9.9095    6.7454    0.8629 C.3       1 <0>         0.1502
     28 C28         6.2906    3.1130    0.7514 C.3       1 <0>         0.0224
     29 N1          6.7674    4.7991   -3.7183 N.am      1 <0>        -0.3553
     30 N2          7.1280    4.0001   -4.8193 N.3       1 <0>        -0.4320
     31 N3          9.4643    5.8648   -4.4722 N.3       1 <0>        -0.9031
     32 N4         10.5470    7.7366    1.7233 N.3       1 <0>        -0.9068
     33 N5          5.4594    0.0035    1.7353 N.am      1 <0>        -0.5526
     34 N6          5.7762    3.5917   -0.5046 N.am      1 <0>        -0.5576
     35 O1          6.9567    6.8465   -2.6685 O.2       1 <0>        -0.6710
     36 O2          4.0675    2.7325    1.6631 O.2       1 <0>        -0.4901
     37 O3          6.0791    1.4075    3.5131 O.2       1 <0>        -0.5902
     38 O4          7.6924    3.2783   -1.7917 O.2       1 <0>        -0.5833
     39 H1         11.6747    9.5075   -8.7400 H         1 <0>         0.1320
     40 H2         12.6111    8.9257   -6.5176 H         1 <0>         0.1324
     41 H3          9.2248    9.4105   -9.1180 H         1 <0>         0.1328
     42 H4         11.1066    8.2484   -4.6756 H         1 <0>         0.1324
     43 H5          7.7115    8.7346   -7.2826 H         1 <0>         0.1434
     44 H6          5.3109   -4.2777    0.7833 H         1 <0>         0.0405
     45 H7          4.6918   -3.5842   -0.7128 H         1 <0>         0.0421
     46 H8          3.6195   -1.7482    0.5014 H         1 <0>         0.0362
     47 H9          3.1217   -3.2788    1.2141 H         1 <0>         0.0439
     48 H10         7.1146   -3.0707   -0.3422 H         1 <0>         0.0350
     49 H11         6.1309   -1.6174   -0.4768 H         1 <0>         0.0428
     50 H12         3.6979   -1.5817    2.9486 H         1 <0>         0.0663
     51 H13         4.6988   -3.0274    3.0595 H         1 <0>         0.0466
     52 H14         7.1828   -2.8985    2.0919 H         1 <0>         0.0493
     53 H15         7.7106   -1.3732    1.3852 H         1 <0>         0.0520
     54 H16         4.3507    3.4578   -4.2870 H         1 <0>         0.0915
     55 H17         4.8908    2.1856   -3.1683 H         1 <0>         0.0601
     56 H18         8.4120    5.9885   -6.8390 H         1 <0>         0.0688
     57 H19         6.9149    6.8257   -6.4876 H         1 <0>         0.0630
     58 H20         6.9926    1.9855   -4.2725 H         1 <0>         0.0807
     59 H21         5.9735    2.3729   -5.6602 H         1 <0>         0.0380
     60 H22         5.7592    4.9288   -6.1435 H         1 <0>         0.0484
     61 H23         7.1185    4.1245   -6.9255 H         1 <0>         0.0697
     62 H24         5.0406    4.8864   -2.5107 H         1 <0>         0.0843
     63 H25         6.1426   -1.0756    3.3454 H         1 <0>         0.0831
     64 H26         8.8151    8.3408   -3.7861 H         1 <0>         0.0704
     65 H27         7.4343    8.5386   -4.8464 H         1 <0>         0.0718
     66 H28         7.6494    5.4516   -0.0948 H         1 <0>         0.0606
     67 H29         8.8216    4.2418    0.4157 H         1 <0>         0.0458
     68 H30         8.0356    6.7709    1.9287 H         1 <0>         0.0375
     69 H31         9.1825    5.5824    2.5383 H         1 <0>         0.0392
     70 H32         6.2171    4.9575    1.8728 H         1 <0>         0.0606
     71 H33         7.3929    3.7874    2.4660 H         1 <0>         0.0579
     72 H34         9.5108    7.2416   -0.0285 H         1 <0>         0.0571
     73 H35        10.6706    6.0303    0.5375 H         1 <0>         0.0503
     74 H36         7.0421    2.3587    0.4881 H         1 <0>         0.0993
     75 H37         9.5764    4.9261   -4.7778 H         1 <0>         0.3700
     76 H38        10.0811    6.3037   -3.8286 H         1 <0>         0.3660
     77 H39        11.2163    8.3531    1.3147 H         1 <0>         0.3465
     78 H40        10.4498    7.6340    2.7108 H         1 <0>         0.3446
     79 H41         5.0899    0.0225    0.7894 H         1 <0>         0.3148
     80 H42         4.8120    3.9176   -0.5391 H         1 <0>         0.3220
@<TRIPOS>BOND
     1    1    2 ar
     2    1    3 ar
     3    2    4 ar
     4    3    5 ar
     5    4    6 ar
     6    5    6 ar
     7    6   23 1
     8    7   22 1
     9    7   29 am
    10    7   35 2
    11    8    9 1
    12    8   28 1
    13    8   36 2
    14    9   33 am
    15    9   37 2
    16   10   20 1
    17   10   34 am
    18   10   38 2
    19   11   12 1
    20   11   13 1
    21   12   14 1
    22   13   15 1
    23   14   21 1
    24   15   21 1
    25   16   18 1
    26   16   20 1
    27   17   19 1
    28   17   22 1
    29   18   30 1
    30   19   30 1
    31   20   29 1
    32   21   33 1
    33   22   23 1
    34   22   31 1
    35   24   25 1
    36   24   26 1
    37   25   27 1
    38   26   28 1
    39   27   32 1
    40   28   34 1
    41   29   30 1
    42    1   39 1
    43    2   40 1
    44    3   41 1
    45    4   42 1
    46    5   43 1
    47   11   44 1
    48   11   45 1
    49   12   46 1
    50   12   47 1
    51   13   48 1
    52   13   49 1
    53   14   50 1
    54   14   51 1
    55   15   52 1
    56   15   53 1
    57   16   54 1
    58   16   55 1
    59   17   56 1
    60   17   57 1
    61   18   58 1
    62   18   59 1
    63   19   60 1
    64   19   61 1
    65   20   62 1
    66   21   63 1
    67   23   64 1
    68   23   65 1
    69   24   66 1
    70   24   67 1
    71   25   68 1
    72   25   69 1
    73   26   70 1
    74   26   71 1
    75   27   72 1
    76   27   73 1
    77   28   74 1
    78   31   75 1
    79   31   76 1
    80   32   77 1
    81   32   78 1
    82   33   79 1
    83   34   80 1
@<TRIPOS>MOLECULE
1a46_ligand_141
   80    83     0     0     0
SMALL
USER_CHARGES

mmff94s_NoEstat = 84.05
@<TRIPOS>ATOM
      1 C1         11.0121    9.2104   -7.9325 C.ar      1 <0>        -0.1300
      2 C2         11.5385    8.8832   -6.6829 C.ar      1 <0>        -0.1323
      3 C3          9.6345    9.1559   -8.1449 C.ar      1 <0>        -0.1309
      4 C4         10.6874    8.5015   -5.6458 C.ar      1 <0>        -0.1275
      5 C5          8.7834    8.7742   -7.1078 C.ar      1 <0>        -0.1272
      6 C6          9.3154    8.4495   -5.8650 C.ar      1 <0>        -0.0843
      7 C7          7.2411    6.0968   -3.6024 C.2       1 <0>         0.6709
      8 C8          5.2358    2.3798    1.5634 C.2       1 <0>         0.4867
      9 C9          5.3950    2.3039    3.0538 C.2       1 <0>         0.5883
     10 C10         6.5256    3.6321   -1.6689 C.2       1 <0>         0.6572
     11 C11         9.8151    1.0691    4.8799 C.3       1 <0>        -0.0802
     12 C12         8.9381   -0.0596    4.3444 C.3       1 <0>        -0.0765
     13 C13         9.1469    2.4326    4.7241 C.3       1 <0>        -0.0774
     14 C14         7.5441   -0.0356    4.9728 C.3       1 <0>        -0.0953
     15 C15         7.7525    2.4508    5.3519 C.3       1 <0>        -0.0906
     16 C16         5.2113    3.0694   -3.7284 C.3       1 <0>        -0.0871
     17 C17         7.6012    6.0599   -6.1012 C.3       1 <0>        -0.0716
     18 C18         6.3446    2.7580   -4.7039 C.3       1 <0>         0.1333
     19 C19         6.8355    4.7264   -6.0536 C.3       1 <0>         0.1246
     20 C20         5.7868    4.1659   -2.8575 C.3       1 <0>         0.0606
     21 C21         6.8497    1.3253    4.8295 C.3       1 <0>         0.1012
     22 C22         8.1773    6.5224   -4.7422 C.3       1 <0>         0.1554
     23 C23         8.4000    8.0389   -4.7494 C.3       1 <0>        -0.0356
     24 C24         8.0800    4.9598    0.7851 C.3       1 <0>        -0.0795
     25 C25         8.7880    6.0338    1.6192 C.3       1 <0>        -0.1203
     26 C26         6.9719    4.2276    1.5544 C.3       1 <0>        -0.0920
     27 C27         9.9095    6.7454    0.8629 C.3       1 <0>         0.1502
     28 C28         6.2906    3.1130    0.7514 C.3       1 <0>         0.0224
     29 N1          6.7674    4.7991   -3.7183 N.am      1 <0>        -0.3553
     30 N2          7.1280    4.0001   -4.8193 N.3       1 <0>        -0.4320
     31 N3          9.4643    5.8648   -4.4722 N.3       1 <0>        -0.9031
     32 N4         10.5470    7.7366    1.7233 N.3       1 <0>        -0.9068
     33 N5          6.4949    1.5685    3.4295 N.am      1 <0>        -0.5526
     34 N6          5.7762    3.5917   -0.5046 N.am      1 <0>        -0.5576
     35 O1          6.9567    6.8465   -2.6685 O.2       1 <0>        -0.6710
     36 O2          4.2060    1.9080    1.0985 O.2       1 <0>        -0.4901
     37 O3          4.5583    2.8586    3.7473 O.2       1 <0>        -0.5902
     38 O4          7.6924    3.2783   -1.7917 O.2       1 <0>        -0.5833
     39 H1         11.6747    9.5075   -8.7400 H         1 <0>         0.1320
     40 H2         12.6111    8.9257   -6.5176 H         1 <0>         0.1324
     41 H3          9.2248    9.4105   -9.1180 H         1 <0>         0.1328
     42 H4         11.1066    8.2484   -4.6756 H         1 <0>         0.1324
     43 H5          7.7115    8.7346   -7.2826 H         1 <0>         0.1434
     44 H6         10.0291    0.8896    5.9408 H         1 <0>         0.0405
     45 H7         10.7780    1.0682    4.3566 H         1 <0>         0.0421
     46 H8          8.8552    0.0275    3.2543 H         1 <0>         0.0362
     47 H9          9.4160   -1.0245    4.5493 H         1 <0>         0.0439
     48 H10         9.7701    3.2027    5.1927 H         1 <0>         0.0350
     49 H11         9.0775    2.6860    3.6593 H         1 <0>         0.0428
     50 H12         6.9302   -0.8221    4.5174 H         1 <0>         0.0663
     51 H13         7.6325   -0.2791    6.0392 H         1 <0>         0.0466
     52 H14         7.8529    2.3503    6.4402 H         1 <0>         0.0493
     53 H15         7.2863    3.4257    5.1647 H         1 <0>         0.0520
     54 H16         4.3507    3.4578   -4.2870 H         1 <0>         0.0915
     55 H17         4.8908    2.1856   -3.1683 H         1 <0>         0.0601
     56 H18         8.4120    5.9885   -6.8390 H         1 <0>         0.0688
     57 H19         6.9149    6.8257   -6.4876 H         1 <0>         0.0630
     58 H20         6.9926    1.9855   -4.2725 H         1 <0>         0.0807
     59 H21         5.9735    2.3729   -5.6602 H         1 <0>         0.0380
     60 H22         5.7592    4.9288   -6.1435 H         1 <0>         0.0484
     61 H23         7.1185    4.1245   -6.9255 H         1 <0>         0.0697
     62 H24         5.0406    4.8864   -2.5107 H         1 <0>         0.0843
     63 H25         5.9045    1.3202    5.3824 H         1 <0>         0.0831
     64 H26         8.8151    8.3408   -3.7861 H         1 <0>         0.0704
     65 H27         7.4343    8.5386   -4.8464 H         1 <0>         0.0718
     66 H28         7.6494    5.4516   -0.0948 H         1 <0>         0.0606
     67 H29         8.8216    4.2418    0.4157 H         1 <0>         0.0458
     68 H30         8.0356    6.7709    1.9287 H         1 <0>         0.0375
     69 H31         9.1825    5.5824    2.5383 H         1 <0>         0.0392
     70 H32         6.2171    4.9575    1.8728 H         1 <0>         0.0606
     71 H33         7.3929    3.7874    2.4660 H         1 <0>         0.0579
     72 H34         9.5108    7.2416   -0.0285 H         1 <0>         0.0571
     73 H35        10.6706    6.0303    0.5375 H         1 <0>         0.0503
     74 H36         7.0421    2.3587    0.4881 H         1 <0>         0.0993
     75 H37         9.5764    4.9261   -4.7778 H         1 <0>         0.3700
     76 H38        10.0811    6.3037   -3.8286 H         1 <0>         0.3660
     77 H39        11.2163    8.3531    1.3147 H         1 <0>         0.3465
     78 H40        10.4498    7.6340    2.7108 H         1 <0>         0.3446
     79 H41         7.0876    1.1766    2.7037 H         1 <0>         0.3148
     80 H42         4.8120    3.9176   -0.5391 H         1 <0>         0.3220
@<TRIPOS>BOND
     1    1    2 ar
     2    1    3 ar
     3    2    4 ar
     4    3    5 ar
     5    4    6 ar
     6    5    6 ar
     7    6   23 1
     8    7   22 1
     9    7   29 am
    10    7   35 2
    11    8    9 1
    12    8   28 1
    13    8   36 2
    14    9   33 am
    15    9   37 2
    16   10   20 1
    17   10   34 am
    18   10   38 2
    19   11   12 1
    20   11   13 1
    21   12   14 1
    22   13   15 1
    23   14   21 1
    24   15   21 1
    25   16   18 1
    26   16   20 1
    27   17   19 1
    28   17   22 1
    29   18   30 1
    30   19   30 1
    31   20   29 1
    32   21   33 1
    33   22   23 1
    34   22   31 1
    35   24   25 1
    36   24   26 1
    37   25   27 1
    38   26   28 1
    39   27   32 1
    40   28   34 1
    41   29   30 1
    42    1   39 1
    43    2   40 1
    44    3   41 1
    45    4   42 1
    46    5   43 1
    47   11   44 1
    48   11   45 1
    49   12   46 1
    50   12   47 1
    51   13   48 1
    52   13   49 1
    53   14   50 1
    54   14   51 1
    55   15   52 1
    56   15   53 1
    57   16   54 1
    58   16   55 1
    59   17   56 1
    60   17   57 1
    61   18   58 1
    62   18   59 1
    63   19   60 1
    64   19   61 1
    65   20   62 1
    66   21   63 1
    67   23   64 1
    68   23   65 1
    69   24   66 1
    70   24   67 1
    71   25   68 1
    72   25   69 1
    73   26   70 1
    74   26   71 1
    75   27   72 1
    76   27   73 1
    77   28   74 1
    78   31   75 1
    79   31   76 1
    80   32   77 1
    81   32   78 1
    82   33   79 1
    83   34   80 1
@<TRIPOS>MOLECULE
1a46_ligand_142
   80    83     0     0     0
SMALL
USER_CHARGES

mmff94s_NoEstat = 84.06
@<TRIPOS>ATOM
      1 C1          5.9504   -1.3642  -10.1903 C.ar      1 <0>        -0.1300
      2 C2          6.6765   -1.8241   -9.0918 C.ar      1 <0>        -0.1323
      3 C3          5.5463   -0.0305  -10.2504 C.ar      1 <0>        -0.1309
      4 C4          6.9984   -0.9504   -8.0532 C.ar      1 <0>        -0.1275
      5 C5          5.8681    0.8432   -9.2119 C.ar      1 <0>        -0.1272
      6 C6          6.5921    0.3776   -8.1201 C.ar      1 <0>        -0.0843
      7 C7          6.1974    2.2868   -4.7798 C.2       1 <0>         0.6709
      8 C8          5.2358    2.3798    1.5634 C.2       1 <0>         0.4867
      9 C9          4.9672    2.8271    2.9706 C.2       1 <0>         0.5883
     10 C10         5.7098    2.8119   -1.6475 C.2       1 <0>         0.6572
     11 C11         8.2032    1.5763    6.4864 C.3       1 <0>        -0.0802
     12 C12         7.2137    0.5065    6.0322 C.3       1 <0>        -0.0765
     13 C13         8.0190    2.8842    5.7214 C.3       1 <0>        -0.0774
     14 C14         5.7707    1.0077    6.1040 C.3       1 <0>        -0.0953
     15 C15         6.5741    3.3800    5.7943 C.3       1 <0>        -0.0906
     16 C16         3.6723    3.8570   -2.6681 C.3       1 <0>        -0.0871
     17 C17         4.4858    1.7161   -6.5463 C.3       1 <0>        -0.0716
     18 C18         2.9535    2.6133   -3.1875 C.3       1 <0>         0.1333
     19 C19         3.4659    2.2898   -5.5476 C.3       1 <0>         0.1246
     20 C20         5.1372    3.5153   -2.8394 C.3       1 <0>         0.0606
     21 C21         5.5583    2.3225    5.3418 C.3       1 <0>         0.1012
     22 C22         5.8481    1.3265   -5.9256 C.3       1 <0>         0.1554
     23 C23         6.9383    1.3175   -7.0029 C.3       1 <0>        -0.0356
     24 C24         8.0800    4.9598    0.7851 C.3       1 <0>        -0.0795
     25 C25         8.7880    6.0338    1.6192 C.3       1 <0>        -0.1203
     26 C26         6.9719    4.2276    1.5544 C.3       1 <0>        -0.0920
     27 C27         9.9095    6.7454    0.8629 C.3       1 <0>         0.1502
     28 C28         6.2906    3.1130    0.7514 C.3       1 <0>         0.0224
     29 N1          5.1345    2.5635   -3.9339 N.am      1 <0>        -0.3553
     30 N2          3.8653    2.0037   -4.1710 N.3       1 <0>        -0.4320
     31 N3          5.7803   -0.0123   -5.3216 N.3       1 <0>        -0.9031
     32 N4         10.5470    7.7366    1.7233 N.3       1 <0>        -0.9068
     33 N5          5.6707    2.0960    3.8993 N.am      1 <0>        -0.5526
     34 N6          5.7762    3.5917   -0.5046 N.am      1 <0>        -0.5576
     35 O1          7.3278    2.7504   -4.6301 O.2       1 <0>        -0.6710
     36 O2          4.5176    1.4899    1.1258 O.2       1 <0>        -0.4901
     37 O3          4.1723    3.7372    3.1396 O.2       1 <0>        -0.5902
     38 O4          6.0670    1.6440   -1.7490 O.2       1 <0>        -0.5833
     39 H1          5.6997   -2.0446  -10.9989 H         1 <0>         0.1320
     40 H2          6.9911   -2.8626   -9.0451 H         1 <0>         0.1324
     41 H3          4.9808    0.3274  -11.1059 H         1 <0>         0.1328
     42 H4          7.5644   -1.3176   -7.2012 H         1 <0>         0.1324
     43 H5          5.5489    1.8806   -9.2673 H         1 <0>         0.1434
     44 H6          8.0688    1.7621    7.5593 H         1 <0>         0.0405
     45 H7          9.2279    1.2117    6.3526 H         1 <0>         0.0421
     46 H8          7.4500    0.2022    5.0054 H         1 <0>         0.0362
     47 H9          7.3236   -0.3854    6.6598 H         1 <0>         0.0439
     48 H10         8.6898    3.6475    6.1320 H         1 <0>         0.0350
     49 H11         8.3087    2.7386    4.6737 H         1 <0>         0.0428
     50 H12         5.1004    0.2326    5.7132 H         1 <0>         0.0663
     51 H13         5.5009    1.1595    7.1570 H         1 <0>         0.0466
     52 H14         6.3505    3.6682    6.8294 H         1 <0>         0.0493
     53 H15         6.4731    4.2854    5.1836 H         1 <0>         0.0520
     54 H16         3.4181    4.7133   -3.3051 H         1 <0>         0.0915
     55 H17         3.3944    4.0971   -1.6373 H         1 <0>         0.0601
     56 H18         4.0497    0.8441   -7.0524 H         1 <0>         0.0688
     57 H19         4.6431    2.4675   -7.3320 H         1 <0>         0.0630
     58 H20         2.8170    1.9026   -2.3635 H         1 <0>         0.0807
     59 H21         1.9588    2.8453   -3.5837 H         1 <0>         0.0380
     60 H22         3.3744    3.3723   -5.7123 H         1 <0>         0.0484
     61 H23         2.4818    1.8533   -5.7569 H         1 <0>         0.0697
     62 H24         5.7646    4.3810   -3.0694 H         1 <0>         0.0843
     63 H25         4.5403    2.6893    5.5099 H         1 <0>         0.0831
     64 H26         7.8868    1.0311   -6.5450 H         1 <0>         0.0704
     65 H27         7.0672    2.3317   -7.3854 H         1 <0>         0.0718
     66 H28         7.6494    5.4516   -0.0948 H         1 <0>         0.0606
     67 H29         8.8216    4.2418    0.4157 H         1 <0>         0.0458
     68 H30         8.0356    6.7709    1.9287 H         1 <0>         0.0375
     69 H31         9.1825    5.5824    2.5383 H         1 <0>         0.0392
     70 H32         6.2171    4.9575    1.8728 H         1 <0>         0.0606
     71 H33         7.3929    3.7874    2.4660 H         1 <0>         0.0579
     72 H34         9.5108    7.2416   -0.0285 H         1 <0>         0.0571
     73 H35        10.6706    6.0303    0.5375 H         1 <0>         0.0503
     74 H36         7.0421    2.3587    0.4881 H         1 <0>         0.0993
     75 H37         4.9287   -0.2795   -4.8849 H         1 <0>         0.3700
     76 H38         6.6336   -0.5056   -5.1950 H         1 <0>         0.3660
     77 H39        11.2163    8.3531    1.3147 H         1 <0>         0.3465
     78 H40        10.4498    7.6340    2.7108 H         1 <0>         0.3446
     79 H41         6.2961    1.3666    3.5700 H         1 <0>         0.3148
     80 H42         5.4441    4.5531   -0.5557 H         1 <0>         0.3220
@<TRIPOS>BOND
     1    1    2 ar
     2    1    3 ar
     3    2    4 ar
     4    3    5 ar
     5    4    6 ar
     6    5    6 ar
     7    6   23 1
     8    7   22 1
     9    7   29 am
    10    7   35 2
    11    8    9 1
    12    8   28 1
    13    8   36 2
    14    9   33 am
    15    9   37 2
    16   10   20 1
    17   10   34 am
    18   10   38 2
    19   11   12 1
    20   11   13 1
    21   12   14 1
    22   13   15 1
    23   14   21 1
    24   15   21 1
    25   16   18 1
    26   16   20 1
    27   17   19 1
    28   17   22 1
    29   18   30 1
    30   19   30 1
    31   20   29 1
    32   21   33 1
    33   22   23 1
    34   22   31 1
    35   24   25 1
    36   24   26 1
    37   25   27 1
    38   26   28 1
    39   27   32 1
    40   28   34 1
    41   29   30 1
    42    1   39 1
    43    2   40 1
    44    3   41 1
    45    4   42 1
    46    5   43 1
    47   11   44 1
    48   11   45 1
    49   12   46 1
    50   12   47 1
    51   13   48 1
    52   13   49 1
    53   14   50 1
    54   14   51 1
    55   15   52 1
    56   15   53 1
    57   16   54 1
    58   16   55 1
    59   17   56 1
    60   17   57 1
    61   18   58 1
    62   18   59 1
    63   19   60 1
    64   19   61 1
    65   20   62 1
    66   21   63 1
    67   23   64 1
    68   23   65 1
    69   24   66 1
    70   24   67 1
    71   25   68 1
    72   25   69 1
    73   26   70 1
    74   26   71 1
    75   27   72 1
    76   27   73 1
    77   28   74 1
    78   31   75 1
    79   31   76 1
    80   32   77 1
    81   32   78 1
    82   33   79 1
    83   34   80 1
@<TRIPOS>MOLECULE
1a46_ligand_143
   80    83     0     0     0
SMALL
USER_CHARGES

mmff94s_NoEstat = 84.06
@<TRIPOS>ATOM
      1 C1         -4.6917   -3.0051  -14.5357 C.ar      1 <0>        -0.1300
      2 C2         -3.4233   -2.4813  -14.7856 C.ar      1 <0>        -0.1323
      3 C3         -5.5209   -2.4030  -13.5893 C.ar      1 <0>        -0.1309
      4 C4         -2.9840   -1.3555  -14.0891 C.ar      1 <0>        -0.1275
      5 C5         -5.0816   -1.2772  -12.8927 C.ar      1 <0>        -0.1272
      6 C6         -3.8160   -0.7608  -13.1471 C.ar      1 <0>        -0.0843
      7 C7         -2.1349    1.2928  -10.3339 C.2       1 <0>         0.6709
      8 C8          2.7796    3.2097   -6.1637 C.2       1 <0>         0.4867
      9 C9          2.0233    2.5606   -5.0416 C.2       1 <0>         0.5883
     10 C10         0.1051    2.2921   -8.2580 C.2       1 <0>         0.6572
     11 C11         1.6595    2.4826    0.3507 C.3       1 <0>        -0.0802
     12 C12         1.9553    1.2906   -0.5551 C.3       1 <0>        -0.0765
     13 C13         0.7499    3.4985   -0.3343 C.3       1 <0>        -0.0774
     14 C14         2.5236    1.7337   -1.9022 C.3       1 <0>        -0.0953
     15 C15         1.3173    3.9447   -1.6808 C.3       1 <0>        -0.0906
     16 C16        -1.6127    1.3005   -6.7245 C.3       1 <0>        -0.0871
     17 C17        -3.5515   -0.7936  -10.2088 C.3       1 <0>        -0.0716
     18 C18        -1.4826   -0.1787   -7.0821 C.3       1 <0>         0.1333
     19 C19        -3.1872   -0.7856   -8.7142 C.3       1 <0>         0.1246
     20 C20        -1.3485    2.0056   -8.0379 C.3       1 <0>         0.0606
     21 C21         1.6014    2.7453   -2.5917 C.3       1 <0>         0.1012
     22 C22        -2.6206    0.0571  -11.1047 C.3       1 <0>         0.1554
     23 C23        -3.3435    0.4502  -12.3978 C.3       1 <0>        -0.0356
     24 C24         1.5857    6.0302   -6.5865 C.3       1 <0>        -0.0795
     25 C25         1.6811    7.5259   -6.9095 C.3       1 <0>        -0.1203
     26 C26         2.1570    5.1335   -7.6933 C.3       1 <0>        -0.0920
     27 C27         1.0885    8.4192   -5.8200 C.3       1 <0>         0.1502
     28 C28         2.0196    3.6328   -7.4097 C.3       1 <0>         0.0224
     29 N1         -1.7438    1.0253   -9.0311 N.am      1 <0>        -0.3553
     30 N2         -1.8314   -0.2790   -8.5099 N.3       1 <0>        -0.4320
     31 N3         -1.4094   -0.6969  -11.4599 N.3       1 <0>        -0.9031
     32 N4          1.1980    9.8225   -6.2046 N.3       1 <0>        -0.9068
     33 N5          2.2102    3.2024   -3.8395 N.am      1 <0>        -0.5526
     34 N6          0.6426    3.2153   -7.3763 N.am      1 <0>        -0.5576
     35 O1         -2.0889    2.4118  -10.8445 O.2       1 <0>        -0.6710
     36 O2          3.9949    3.2835   -6.0334 O.2       1 <0>        -0.4901
     37 O3          1.3678    1.5632   -5.2954 O.2       1 <0>        -0.5902
     38 O4          0.7038    1.7190   -9.1607 O.2       1 <0>        -0.5833
     39 H1         -5.0337   -3.8817  -15.0780 H         1 <0>         0.1320
     40 H2         -2.7778   -2.9502  -15.5226 H         1 <0>         0.1324
     41 H3         -6.5084   -2.8111  -13.3947 H         1 <0>         0.1328
     42 H4         -1.9943   -0.9544  -14.2904 H         1 <0>         0.1324
     43 H5         -5.7344   -0.8149  -12.1571 H         1 <0>         0.1434
     44 H6          1.1906    2.1339    1.2777 H         1 <0>         0.0405
     45 H7          2.6018    2.9688    0.6318 H         1 <0>         0.0421
     46 H8          2.6644    0.6180   -0.0595 H         1 <0>         0.0362
     47 H9          1.0336    0.7189   -0.7194 H         1 <0>         0.0439
     48 H10        -0.2429    3.0572   -0.4856 H         1 <0>         0.0350
     49 H11         0.6160    4.3704    0.3160 H         1 <0>         0.0428
     50 H12         3.5178    2.1746   -1.7510 H         1 <0>         0.0663
     51 H13         2.6676    0.8581   -2.5469 H         1 <0>         0.0466
     52 H14         0.6112    4.6270   -2.1695 H         1 <0>         0.0493
     53 H15         2.2394    4.5176   -1.5161 H         1 <0>         0.0520
     54 H16        -2.6402    1.5041   -6.3986 H         1 <0>         0.0915
     55 H17        -0.9296    1.5953   -5.9220 H         1 <0>         0.0601
     56 H18        -3.5677   -1.8293  -10.5746 H         1 <0>         0.0688
     57 H19        -4.5835   -0.4292  -10.3032 H         1 <0>         0.0630
     58 H20        -0.4377   -0.4900   -6.9643 H         1 <0>         0.0807
     59 H21        -2.0868   -0.8173   -6.4283 H         1 <0>         0.0380
     60 H22        -3.9204   -0.1736   -8.1708 H         1 <0>         0.0484
     61 H23        -3.2749   -1.8064   -8.3232 H         1 <0>         0.0697
     62 H24        -1.9101    2.9367   -8.1555 H         1 <0>         0.0843
     63 H25         0.6591    2.2590   -2.8696 H         1 <0>         0.0831
     64 H26        -2.6659    1.0404  -13.0174 H         1 <0>         0.0704
     65 H27        -4.1870    1.0971  -12.1499 H         1 <0>         0.0718
     66 H28         2.1358    5.8550   -5.6547 H         1 <0>         0.0606
     67 H29         0.5392    5.7688   -6.3906 H         1 <0>         0.0458
     68 H30         2.7419    7.7748   -7.0444 H         1 <0>         0.0375
     69 H31         1.1870    7.7255   -7.8687 H         1 <0>         0.0392
     70 H32         3.2164    5.3787   -7.8393 H         1 <0>         0.0606
     71 H33         1.6466    5.3535   -8.6384 H         1 <0>         0.0579
     72 H34         1.6137    8.2608   -4.8719 H         1 <0>         0.0571
     73 H35         0.0315    8.1861   -5.6617 H         1 <0>         0.0503
     74 H36         2.4714    3.0747   -8.2388 H         1 <0>         0.0993
     75 H37        -1.0328   -1.3138  -10.7781 H         1 <0>         0.3700
     76 H38        -0.9095   -0.4127  -12.2703 H         1 <0>         0.3660
     77 H39         0.9557   10.5154   -5.5293 H         1 <0>         0.3465
     78 H40         1.3102   10.0373   -7.1723 H         1 <0>         0.3446
     79 H41         2.7974    4.0308   -3.8179 H         1 <0>         0.3148
     80 H42         0.0323    3.6193   -6.6682 H         1 <0>         0.3220
@<TRIPOS>BOND
     1    1    2 ar
     2    1    3 ar
     3    2    4 ar
     4    3    5 ar
     5    4    6 ar
     6    5    6 ar
     7    6   23 1
     8    7   22 1
     9    7   29 am
    10    7   35 2
    11    8    9 1
    12    8   28 1
    13    8   36 2
    14    9   33 am
    15    9   37 2
    16   10   20 1
    17   10   34 am
    18   10   38 2
    19   11   12 1
    20   11   13 1
    21   12   14 1
    22   13   15 1
    23   14   21 1
    24   15   21 1
    25   16   18 1
    26   16   20 1
    27   17   19 1
    28   17   22 1
    29   18   30 1
    30   19   30 1
    31   20   29 1
    32   21   33 1
    33   22   23 1
    34   22   31 1
    35   24   25 1
    36   24   26 1
    37   25   27 1
    38   26   28 1
    39   27   32 1
    40   28   34 1
    41   29   30 1
    42    1   39 1
    43    2   40 1
    44    3   41 1
    45    4   42 1
    46    5   43 1
    47   11   44 1
    48   11   45 1
    49   12   46 1
    50   12   47 1
    51   13   48 1
    52   13   49 1
    53   14   50 1
    54   14   51 1
    55   15   52 1
    56   15   53 1
    57   16   54 1
    58   16   55 1
    59   17   56 1
    60   17   57 1
    61   18   58 1
    62   18   59 1
    63   19   60 1
    64   19   61 1
    65   20   62 1
    66   21   63 1
    67   23   64 1
    68   23   65 1
    69   24   66 1
    70   24   67 1
    71   25   68 1
    72   25   69 1
    73   26   70 1
    74   26   71 1
    75   27   72 1
    76   27   73 1
    77   28   74 1
    78   31   75 1
    79   31   76 1
    80   32   77 1
    81   32   78 1
    82   33   79 1
    83   34   80 1
@<TRIPOS>MOLECULE
1a46_ligand_144
   80    83     0     0     0
SMALL
USER_CHARGES

mmff94s_NoEstat = 84.08
@<TRIPOS>ATOM
      1 C1          5.9504   -1.3642  -10.1903 C.ar      1 <0>        -0.1300
      2 C2          6.6765   -1.8241   -9.0918 C.ar      1 <0>        -0.1323
      3 C3          5.5463   -0.0305  -10.2504 C.ar      1 <0>        -0.1309
      4 C4          6.9984   -0.9504   -8.0532 C.ar      1 <0>        -0.1275
      5 C5          5.8681    0.8432   -9.2119 C.ar      1 <0>        -0.1272
      6 C6          6.5921    0.3776   -8.1201 C.ar      1 <0>        -0.0843
      7 C7          6.1974    2.2868   -4.7798 C.2       1 <0>         0.6709
      8 C8          5.2358    2.3798    1.5634 C.2       1 <0>         0.4867
      9 C9          5.3950    2.3039    3.0538 C.2       1 <0>         0.5883
     10 C10         5.7098    2.8119   -1.6475 C.2       1 <0>         0.6572
     11 C11         3.0492    5.6907    5.7785 C.3       1 <0>        -0.0802
     12 C12         4.4950    5.6297    5.2929 C.3       1 <0>        -0.0765
     13 C13         2.2341    4.4954    5.2920 C.3       1 <0>        -0.0774
     14 C14         5.1576    4.3022    5.6635 C.3       1 <0>        -0.0953
     15 C15         2.9019    3.1705    5.6630 C.3       1 <0>        -0.0906
     16 C16         3.6723    3.8570   -2.6681 C.3       1 <0>        -0.0871
     17 C17         4.4858    1.7161   -6.5463 C.3       1 <0>        -0.0716
     18 C18         2.9535    2.6133   -3.1875 C.3       1 <0>         0.1333
     19 C19         3.4659    2.2898   -5.5476 C.3       1 <0>         0.1246
     20 C20         5.1372    3.5153   -2.8394 C.3       1 <0>         0.0606
     21 C21         4.3575    3.0833    5.1852 C.3       1 <0>         0.1012
     22 C22         5.8481    1.3265   -5.9256 C.3       1 <0>         0.1554
     23 C23         6.9383    1.3175   -7.0029 C.3       1 <0>        -0.0356
     24 C24         8.0800    4.9598    0.7851 C.3       1 <0>        -0.0795
     25 C25         8.7880    6.0338    1.6192 C.3       1 <0>        -0.1203
     26 C26         6.9719    4.2276    1.5544 C.3       1 <0>        -0.0920
     27 C27         9.9095    6.7454    0.8629 C.3       1 <0>         0.1502
     28 C28         6.2906    3.1130    0.7514 C.3       1 <0>         0.0224
     29 N1          5.1345    2.5635   -3.9339 N.am      1 <0>        -0.3553
     30 N2          3.8653    2.0037   -4.1710 N.3       1 <0>        -0.4320
     31 N3          5.7803   -0.0123   -5.3216 N.3       1 <0>        -0.9031
     32 N4         10.5470    7.7366    1.7233 N.3       1 <0>        -0.9068
     33 N5          4.4068    2.9859    3.7248 N.am      1 <0>        -0.5526
     34 N6          5.7762    3.5917   -0.5046 N.am      1 <0>        -0.5576
     35 O1          7.3278    2.7504   -4.6301 O.2       1 <0>        -0.6710
     36 O2          4.2060    1.9080    1.0985 O.2       1 <0>        -0.4901
     37 O3          6.3530    1.6912    3.4962 O.2       1 <0>        -0.5902
     38 O4          6.0670    1.6440   -1.7490 O.2       1 <0>        -0.5833
     39 H1          5.6997   -2.0446  -10.9989 H         1 <0>         0.1320
     40 H2          6.9911   -2.8626   -9.0451 H         1 <0>         0.1324
     41 H3          4.9808    0.3274  -11.1059 H         1 <0>         0.1328
     42 H4          7.5644   -1.3176   -7.2012 H         1 <0>         0.1324
     43 H5          5.5489    1.8806   -9.2673 H         1 <0>         0.1434
     44 H6          3.0360    5.7160    6.8752 H         1 <0>         0.0405
     45 H7          2.5829    6.6203    5.4332 H         1 <0>         0.0421
     46 H8          4.5215    5.7666    4.2051 H         1 <0>         0.0362
     47 H9          5.0642    6.4581    5.7300 H         1 <0>         0.0439
     48 H10         1.2293    4.5342    5.7279 H         1 <0>         0.0350
     49 H11         2.1099    4.5562    4.2040 H         1 <0>         0.0428
     50 H12         6.1710    4.2763    5.2448 H         1 <0>         0.0663
     51 H13         5.2635    4.2522    6.7547 H         1 <0>         0.0466
     52 H14         2.8780    3.0554    6.7542 H         1 <0>         0.0493
     53 H15         2.3172    2.3429    5.2434 H         1 <0>         0.0520
     54 H16         3.4181    4.7133   -3.3051 H         1 <0>         0.0915
     55 H17         3.3944    4.0971   -1.6373 H         1 <0>         0.0601
     56 H18         4.0497    0.8441   -7.0524 H         1 <0>         0.0688
     57 H19         4.6431    2.4675   -7.3320 H         1 <0>         0.0630
     58 H20         2.8170    1.9026   -2.3635 H         1 <0>         0.0807
     59 H21         1.9588    2.8453   -3.5837 H         1 <0>         0.0380
     60 H22         3.3744    3.3723   -5.7123 H         1 <0>         0.0484
     61 H23         2.4818    1.8533   -5.7569 H         1 <0>         0.0697
     62 H24         5.7646    4.3810   -3.0694 H         1 <0>         0.0843
     63 H25         4.8183    2.1647    5.5633 H         1 <0>         0.0831
     64 H26         7.8868    1.0311   -6.5450 H         1 <0>         0.0704
     65 H27         7.0672    2.3317   -7.3854 H         1 <0>         0.0718
     66 H28         7.6494    5.4516   -0.0948 H         1 <0>         0.0606
     67 H29         8.8216    4.2418    0.4157 H         1 <0>         0.0458
     68 H30         8.0356    6.7709    1.9287 H         1 <0>         0.0375
     69 H31         9.1825    5.5824    2.5383 H         1 <0>         0.0392
     70 H32         6.2171    4.9575    1.8728 H         1 <0>         0.0606
     71 H33         7.3929    3.7874    2.4660 H         1 <0>         0.0579
     72 H34         9.5108    7.2416   -0.0285 H         1 <0>         0.0571
     73 H35        10.6706    6.0303    0.5375 H         1 <0>         0.0503
     74 H36         7.0421    2.3587    0.4881 H         1 <0>         0.0993
     75 H37         4.9287   -0.2795   -4.8849 H         1 <0>         0.3700
     76 H38         6.6336   -0.5056   -5.1950 H         1 <0>         0.3660
     77 H39        11.2163    8.3531    1.3147 H         1 <0>         0.3465
     78 H40        10.4498    7.6340    2.7108 H         1 <0>         0.3446
     79 H41         3.6788    3.4423    3.1832 H         1 <0>         0.3148
     80 H42         5.4441    4.5531   -0.5557 H         1 <0>         0.3220
@<TRIPOS>BOND
     1    1    2 ar
     2    1    3 ar
     3    2    4 ar
     4    3    5 ar
     5    4    6 ar
     6    5    6 ar
     7    6   23 1
     8    7   22 1
     9    7   29 am
    10    7   35 2
    11    8    9 1
    12    8   28 1
    13    8   36 2
    14    9   33 am
    15    9   37 2
    16   10   20 1
    17   10   34 am
    18   10   38 2
    19   11   12 1
    20   11   13 1
    21   12   14 1
    22   13   15 1
    23   14   21 1
    24   15   21 1
    25   16   18 1
    26   16   20 1
    27   17   19 1
    28   17   22 1
    29   18   30 1
    30   19   30 1
    31   20   29 1
    32   21   33 1
    33   22   23 1
    34   22   31 1
    35   24   25 1
    36   24   26 1
    37   25   27 1
    38   26   28 1
    39   27   32 1
    40   28   34 1
    41   29   30 1
    42    1   39 1
    43    2   40 1
    44    3   41 1
    45    4   42 1
    46    5   43 1
    47   11   44 1
    48   11   45 1
    49   12   46 1
    50   12   47 1
    51   13   48 1
    52   13   49 1
    53   14   50 1
    54   14   51 1
    55   15   52 1
    56   15   53 1
    57   16   54 1
    58   16   55 1
    59   17   56 1
    60   17   57 1
    61   18   58 1
    62   18   59 1
    63   19   60 1
    64   19   61 1
    65   20   62 1
    66   21   63 1
    67   23   64 1
    68   23   65 1
    69   24   66 1
    70   24   67 1
    71   25   68 1
    72   25   69 1
    73   26   70 1
    74   26   71 1
    75   27   72 1
    76   27   73 1
    77   28   74 1
    78   31   75 1
    79   31   76 1
    80   32   77 1
    81   32   78 1
    82   33   79 1
    83   34   80 1
@<TRIPOS>MOLECULE
1a46_ligand_145
   80    83     0     0     0
SMALL
USER_CHARGES

mmff94s_NoEstat = 84.09
@<TRIPOS>ATOM
      1 C1         11.0121    9.2104   -7.9325 C.ar      1 <0>        -0.1300
      2 C2         11.5385    8.8832   -6.6829 C.ar      1 <0>        -0.1323
      3 C3          9.6345    9.1559   -8.1449 C.ar      1 <0>        -0.1309
      4 C4         10.6874    8.5015   -5.6458 C.ar      1 <0>        -0.1275
      5 C5          8.7834    8.7742   -7.1078 C.ar      1 <0>        -0.1272
      6 C6          9.3154    8.4495   -5.8650 C.ar      1 <0>        -0.0843
      7 C7          7.2411    6.0968   -3.6024 C.2       1 <0>         0.6709
      8 C8          5.2358    2.3798    1.5634 C.2       1 <0>         0.4867
      9 C9          5.6522    1.1980    2.3894 C.2       1 <0>         0.5883
     10 C10         6.5256    3.6321   -1.6689 C.2       1 <0>         0.6572
     11 C11         8.5733   -2.2013    0.3137 C.3       1 <0>        -0.0802
     12 C12         7.0878   -2.2472   -0.0344 C.3       1 <0>        -0.0765
     13 C13         8.9012   -1.0498    1.2605 C.3       1 <0>        -0.0774
     14 C14         6.2162   -2.2794    1.2217 C.3       1 <0>        -0.0953
     15 C15         8.0255   -1.0852    2.5138 C.3       1 <0>        -0.0906
     16 C16         5.2113    3.0694   -3.7284 C.3       1 <0>        -0.0871
     17 C17         7.6012    6.0599   -6.1012 C.3       1 <0>        -0.0716
     18 C18         6.3446    2.7580   -4.7039 C.3       1 <0>         0.1333
     19 C19         6.8355    4.7264   -6.0536 C.3       1 <0>         0.1246
     20 C20         5.7868    4.1659   -2.8575 C.3       1 <0>         0.0606
     21 C21         6.5260   -1.1310    2.1912 C.3       1 <0>         0.1012
     22 C22         8.1773    6.5224   -4.7422 C.3       1 <0>         0.1554
     23 C23         8.4000    8.0389   -4.7494 C.3       1 <0>        -0.0356
     24 C24         7.6485    3.7409    2.8432 C.3       1 <0>        -0.0795
     25 C25         8.2774    4.8743    3.6620 C.3       1 <0>        -0.1203
     26 C26         6.9719    4.2276    1.5544 C.3       1 <0>        -0.0920
     27 C27         8.9284    4.3945    4.9589 C.3       1 <0>         0.1502
     28 C28         6.2906    3.1130    0.7514 C.3       1 <0>         0.0224
     29 N1          6.7674    4.7991   -3.7183 N.am      1 <0>        -0.3553
     30 N2          7.1280    4.0001   -4.8193 N.3       1 <0>        -0.4320
     31 N3          9.4643    5.8648   -4.4722 N.3       1 <0>        -0.9031
     32 N4          9.4866    5.5266    5.6910 N.3       1 <0>        -0.9068
     33 N5          6.0911    0.1457    1.6201 N.am      1 <0>        -0.5526
     34 N6          5.7762    3.5917   -0.5046 N.am      1 <0>        -0.5576
     35 O1          6.9567    6.8465   -2.6685 O.2       1 <0>        -0.6710
     36 O2          4.0675    2.7325    1.6631 O.2       1 <0>        -0.4901
     37 O3          5.5431    1.2807    3.6019 O.2       1 <0>        -0.5902
     38 O4          7.6924    3.2783   -1.7917 O.2       1 <0>        -0.5833
     39 H1         11.6747    9.5075   -8.7400 H         1 <0>         0.1320
     40 H2         12.6111    8.9257   -6.5176 H         1 <0>         0.1324
     41 H3          9.2248    9.4105   -9.1180 H         1 <0>         0.1328
     42 H4         11.1066    8.2484   -4.6756 H         1 <0>         0.1324
     43 H5          7.7115    8.7346   -7.2826 H         1 <0>         0.1434
     44 H6          8.8652   -3.1496    0.7818 H         1 <0>         0.0405
     45 H7          9.1645   -2.1042   -0.6039 H         1 <0>         0.0421
     46 H8          6.8280   -1.3732   -0.6439 H         1 <0>         0.0362
     47 H9          6.8815   -3.1326   -0.6466 H         1 <0>         0.0439
     48 H10         9.9572   -1.1013    1.5494 H         1 <0>         0.0350
     49 H11         8.7621   -0.0959    0.7377 H         1 <0>         0.0428
     50 H12         5.1599   -2.2505    0.9279 H         1 <0>         0.0663
     51 H13         6.3761   -3.2341    1.7388 H         1 <0>         0.0466
     52 H14         8.2894   -1.9712    3.1052 H         1 <0>         0.0493
     53 H15         8.2509   -0.2099    3.1351 H         1 <0>         0.0520
     54 H16         4.3507    3.4578   -4.2870 H         1 <0>         0.0915
     55 H17         4.8908    2.1856   -3.1683 H         1 <0>         0.0601
     56 H18         8.4120    5.9885   -6.8390 H         1 <0>         0.0688
     57 H19         6.9149    6.8257   -6.4876 H         1 <0>         0.0630
     58 H20         6.9926    1.9855   -4.2725 H         1 <0>         0.0807
     59 H21         5.9735    2.3729   -5.6602 H         1 <0>         0.0380
     60 H22         5.7592    4.9288   -6.1435 H         1 <0>         0.0484
     61 H23         7.1185    4.1245   -6.9255 H         1 <0>         0.0697
     62 H24         5.0406    4.8864   -2.5107 H         1 <0>         0.0843
     63 H25         5.9510   -1.2586    3.1143 H         1 <0>         0.0831
     64 H26         8.8151    8.3408   -3.7861 H         1 <0>         0.0704
     65 H27         7.4343    8.5386   -4.8464 H         1 <0>         0.0718
     66 H28         8.4445    3.0306    2.5915 H         1 <0>         0.0606
     67 H29         6.9275    3.2007    3.4679 H         1 <0>         0.0458
     68 H30         9.0354    5.3625    3.0356 H         1 <0>         0.0375
     69 H31         7.5157    5.6329    3.8824 H         1 <0>         0.0392
     70 H32         7.7210    4.7221    0.9235 H         1 <0>         0.0606
     71 H33         6.2174    4.9831    1.8035 H         1 <0>         0.0579
     72 H34         9.7251    3.6753    4.7403 H         1 <0>         0.0571
     73 H35         8.1937    3.8977    5.5994 H         1 <0>         0.0503
     74 H36         7.0421    2.3587    0.4881 H         1 <0>         0.0993
     75 H37         9.5764    4.9261   -4.7778 H         1 <0>         0.3700
     76 H38        10.0811    6.3037   -3.8286 H         1 <0>         0.3660
     77 H39        10.0430    5.3371    6.4969 H         1 <0>         0.3465
     78 H40         9.1331    6.4373    5.4892 H         1 <0>         0.3446
     79 H41         6.1146    0.2589    0.6111 H         1 <0>         0.3148
     80 H42         4.8120    3.9176   -0.5391 H         1 <0>         0.3220
@<TRIPOS>BOND
     1    1    2 ar
     2    1    3 ar
     3    2    4 ar
     4    3    5 ar
     5    4    6 ar
     6    5    6 ar
     7    6   23 1
     8    7   22 1
     9    7   29 am
    10    7   35 2
    11    8    9 1
    12    8   28 1
    13    8   36 2
    14    9   33 am
    15    9   37 2
    16   10   20 1
    17   10   34 am
    18   10   38 2
    19   11   12 1
    20   11   13 1
    21   12   14 1
    22   13   15 1
    23   14   21 1
    24   15   21 1
    25   16   18 1
    26   16   20 1
    27   17   19 1
    28   17   22 1
    29   18   30 1
    30   19   30 1
    31   20   29 1
    32   21   33 1
    33   22   23 1
    34   22   31 1
    35   24   25 1
    36   24   26 1
    37   25   27 1
    38   26   28 1
    39   27   32 1
    40   28   34 1
    41   29   30 1
    42    1   39 1
    43    2   40 1
    44    3   41 1
    45    4   42 1
    46    5   43 1
    47   11   44 1
    48   11   45 1
    49   12   46 1
    50   12   47 1
    51   13   48 1
    52   13   49 1
    53   14   50 1
    54   14   51 1
    55   15   52 1
    56   15   53 1
    57   16   54 1
    58   16   55 1
    59   17   56 1
    60   17   57 1
    61   18   58 1
    62   18   59 1
    63   19   60 1
    64   19   61 1
    65   20   62 1
    66   21   63 1
    67   23   64 1
    68   23   65 1
    69   24   66 1
    70   24   67 1
    71   25   68 1
    72   25   69 1
    73   26   70 1
    74   26   71 1
    75   27   72 1
    76   27   73 1
    77   28   74 1
    78   31   75 1
    79   31   76 1
    80   32   77 1
    81   32   78 1
    82   33   79 1
    83   34   80 1
@<TRIPOS>MOLECULE
1a46_ligand_146
   80    83     0     0     0
SMALL
USER_CHARGES

mmff94s_NoEstat = 84.11
@<TRIPOS>ATOM
      1 C1          9.3427    1.2226  -10.2936 C.ar      1 <0>        -0.1300
      2 C2          9.9666    0.8172   -9.1138 C.ar      1 <0>        -0.1323
      3 C3          8.4336    2.2805  -10.2739 C.ar      1 <0>        -0.1309
      4 C4          9.6814    1.4695   -7.9143 C.ar      1 <0>        -0.1275
      5 C5          8.1485    2.9328   -9.0744 C.ar      1 <0>        -0.1272
      6 C6          8.7742    2.5231   -7.9024 C.ar      1 <0>        -0.0843
      7 C7          6.9710    3.2795   -4.5657 C.2       1 <0>         0.6709
      8 C8          5.2358    2.3798    1.5634 C.2       1 <0>         0.4867
      9 C9          5.6522    1.1980    2.3894 C.2       1 <0>         0.5883
     10 C10         5.7098    2.8119   -1.6475 C.2       1 <0>         0.6572
     11 C11         5.8911   -3.1928    0.1399 C.3       1 <0>        -0.0802
     12 C12         4.7903   -2.5697    0.9943 C.3       1 <0>        -0.0765
     13 C13         7.0788   -2.2502   -0.0351 C.3       1 <0>        -0.0774
     14 C14         5.3303   -2.0814    2.3392 C.3       1 <0>        -0.0953
     15 C15         7.6136   -1.7629    1.3123 C.3       1 <0>        -0.0906
     16 C16         3.6624    3.2324   -3.0320 C.3       1 <0>        -0.0871
     17 C17         6.0388    2.5547   -6.7975 C.3       1 <0>        -0.0716
     18 C18         3.6514    1.9752   -3.8994 C.3       1 <0>         0.1333
     19 C19         4.6996    2.4463   -6.0480 C.3       1 <0>         0.1246
     20 C20         5.1372    3.5153   -2.8394 C.3       1 <0>         0.0606
     21 C21         6.5260   -1.1310    2.1912 C.3       1 <0>         0.1012
     22 C22         7.2891    2.5653   -5.8869 C.3       1 <0>         0.1554
     23 C23         8.4675    3.2247   -6.6121 C.3       1 <0>        -0.0356
     24 C24         7.6485    3.7409    2.8432 C.3       1 <0>        -0.0795
     25 C25         8.2774    4.8743    3.6620 C.3       1 <0>        -0.1203
     26 C26         6.9719    4.2276    1.5544 C.3       1 <0>        -0.0920
     27 C27         8.9284    4.3945    4.9589 C.3       1 <0>         0.1502
     28 C28         6.2906    3.1130    0.7514 C.3       1 <0>         0.0224
     29 N1          5.7488    2.9259   -4.0152 N.am      1 <0>        -0.3553
     30 N2          4.9069    2.0073   -4.6693 N.3       1 <0>        -0.4320
     31 N3          7.6768    1.1953   -5.5201 N.3       1 <0>        -0.9031
     32 N4          9.4866    5.5266    5.6910 N.3       1 <0>        -0.9068
     33 N5          6.0911    0.1457    1.6201 N.am      1 <0>        -0.5526
     34 N6          5.7762    3.5917   -0.5046 N.am      1 <0>        -0.5576
     35 O1          7.7474    4.0812   -4.0464 O.2       1 <0>        -0.6710
     36 O2          4.0675    2.7325    1.6631 O.2       1 <0>        -0.4901
     37 O3          5.5431    1.2807    3.6019 O.2       1 <0>        -0.5902
     38 O4          6.0670    1.6440   -1.7490 O.2       1 <0>        -0.5833
     39 H1          9.5646    0.7147  -11.2275 H         1 <0>         0.1320
     40 H2         10.6743   -0.0064   -9.1292 H         1 <0>         0.1324
     41 H3          7.9478    2.5960  -11.1926 H         1 <0>         0.1328
     42 H4         10.1723    1.1467   -7.0000 H         1 <0>         0.1324
     43 H5          7.4388    3.7559   -9.0687 H         1 <0>         0.1434
     44 H6          6.2329   -4.1227    0.6110 H         1 <0>         0.0405
     45 H7          5.4871   -3.4636   -0.8422 H         1 <0>         0.0421
     46 H8          4.3356   -1.7325    0.4511 H         1 <0>         0.0362
     47 H9          3.9961   -3.3058    1.1637 H         1 <0>         0.0439
     48 H10         7.8774   -2.7635   -0.5827 H         1 <0>         0.0350
     49 H11         6.7768   -1.3914   -0.6467 H         1 <0>         0.0428
     50 H12         4.5228   -1.5882    2.8938 H         1 <0>         0.0663
     51 H13         5.6388   -2.9510    2.9333 H         1 <0>         0.0466
     52 H14         8.0534   -2.6142    1.8474 H         1 <0>         0.0493
     53 H15         8.4235   -1.0439    1.1392 H         1 <0>         0.0520
     54 H16         3.1996    4.0578   -3.5869 H         1 <0>         0.0915
     55 H17         3.1150    3.0948   -2.0945 H         1 <0>         0.0601
     56 H18         6.1186    1.7328   -7.5220 H         1 <0>         0.0688
     57 H19         6.0134    3.4760   -7.3953 H         1 <0>         0.0630
     58 H20         3.6705    1.0888   -3.2538 H         1 <0>         0.0807
     59 H21         2.7495    1.9066   -4.5175 H         1 <0>         0.0380
     60 H22         4.1937    3.4213   -6.0771 H         1 <0>         0.0484
     61 H23         4.0529    1.7380   -6.5798 H         1 <0>         0.0697
     62 H24         5.3721    4.5807   -2.7630 H         1 <0>         0.0843
     63 H25         6.9368   -0.8941    3.1782 H         1 <0>         0.0831
     64 H26         9.3395    3.2124   -5.9558 H         1 <0>         0.0704
     65 H27         8.2279    4.2735   -6.7972 H         1 <0>         0.0718
     66 H28         8.4445    3.0306    2.5915 H         1 <0>         0.0606
     67 H29         6.9275    3.2007    3.4679 H         1 <0>         0.0458
     68 H30         9.0354    5.3625    3.0356 H         1 <0>         0.0375
     69 H31         7.5157    5.6329    3.8824 H         1 <0>         0.0392
     70 H32         7.7210    4.7221    0.9235 H         1 <0>         0.0606
     71 H33         6.2174    4.9831    1.8035 H         1 <0>         0.0579
     72 H34         9.7251    3.6753    4.7403 H         1 <0>         0.0571
     73 H35         8.1937    3.8977    5.5994 H         1 <0>         0.0503
     74 H36         7.0421    2.3587    0.4881 H         1 <0>         0.0993
     75 H37         6.9507    0.5323   -5.3773 H         1 <0>         0.3700
     76 H38         8.6161    1.0420   -5.2343 H         1 <0>         0.3660
     77 H39        10.0430    5.3371    6.4969 H         1 <0>         0.3465
     78 H40         9.1331    6.4373    5.4892 H         1 <0>         0.3446
     79 H41         6.1146    0.2589    0.6111 H         1 <0>         0.3148
     80 H42         5.4441    4.5531   -0.5557 H         1 <0>         0.3220
@<TRIPOS>BOND
     1    1    2 ar
     2    1    3 ar
     3    2    4 ar
     4    3    5 ar
     5    4    6 ar
     6    5    6 ar
     7    6   23 1
     8    7   22 1
     9    7   29 am
    10    7   35 2
    11    8    9 1
    12    8   28 1
    13    8   36 2
    14    9   33 am
    15    9   37 2
    16   10   20 1
    17   10   34 am
    18   10   38 2
    19   11   12 1
    20   11   13 1
    21   12   14 1
    22   13   15 1
    23   14   21 1
    24   15   21 1
    25   16   18 1
    26   16   20 1
    27   17   19 1
    28   17   22 1
    29   18   30 1
    30   19   30 1
    31   20   29 1
    32   21   33 1
    33   22   23 1
    34   22   31 1
    35   24   25 1
    36   24   26 1
    37   25   27 1
    38   26   28 1
    39   27   32 1
    40   28   34 1
    41   29   30 1
    42    1   39 1
    43    2   40 1
    44    3   41 1
    45    4   42 1
    46    5   43 1
    47   11   44 1
    48   11   45 1
    49   12   46 1
    50   12   47 1
    51   13   48 1
    52   13   49 1
    53   14   50 1
    54   14   51 1
    55   15   52 1
    56   15   53 1
    57   16   54 1
    58   16   55 1
    59   17   56 1
    60   17   57 1
    61   18   58 1
    62   18   59 1
    63   19   60 1
    64   19   61 1
    65   20   62 1
    66   21   63 1
    67   23   64 1
    68   23   65 1
    69   24   66 1
    70   24   67 1
    71   25   68 1
    72   25   69 1
    73   26   70 1
    74   26   71 1
    75   27   72 1
    76   27   73 1
    77   28   74 1
    78   31   75 1
    79   31   76 1
    80   32   77 1
    81   32   78 1
    82   33   79 1
    83   34   80 1
@<TRIPOS>MOLECULE
1a46_ligand_147
   80    83     0     0     0
SMALL
USER_CHARGES

mmff94s_NoEstat = 84.13
@<TRIPOS>ATOM
      1 C1         11.1945    5.3647   -9.7731 C.ar      1 <0>        -0.1300
      2 C2         11.8337    5.1154   -8.5586 C.ar      1 <0>        -0.1323
      3 C3          9.8873    5.8513   -9.7863 C.ar      1 <0>        -0.1309
      4 C4         11.1656    5.3526   -7.3573 C.ar      1 <0>        -0.1275
      5 C5          9.2192    6.0884   -8.5850 C.ar      1 <0>        -0.1272
      6 C6          9.8628    5.8375   -7.3783 C.ar      1 <0>        -0.0843
      7 C7          7.6425    5.1042   -4.2977 C.2       1 <0>         0.6709
      8 C8          5.2358    2.3798    1.5634 C.2       1 <0>         0.4867
      9 C9          5.6522    1.1980    2.3894 C.2       1 <0>         0.5883
     10 C10         6.5256    3.6321   -1.6689 C.2       1 <0>         0.6572
     11 C11         5.8911   -3.1928    0.1399 C.3       1 <0>        -0.0802
     12 C12         4.7903   -2.5697    0.9943 C.3       1 <0>        -0.0765
     13 C13         7.0788   -2.2502   -0.0351 C.3       1 <0>        -0.0774
     14 C14         5.3303   -2.0814    2.3392 C.3       1 <0>        -0.0953
     15 C15         7.6136   -1.7629    1.3123 C.3       1 <0>        -0.0906
     16 C16         4.6595    3.2577   -3.3009 C.3       1 <0>        -0.0871
     17 C17         7.3760    4.3986   -6.7074 C.3       1 <0>        -0.0716
     18 C18         5.3367    2.3027   -4.2819 C.3       1 <0>         0.1333
     19 C19         6.2012    3.5529   -6.1864 C.3       1 <0>         0.1246
     20 C20         5.7868    4.1659   -2.8575 C.3       1 <0>         0.0606
     21 C21         6.5260   -1.1310    2.1912 C.3       1 <0>         0.1012
     22 C22         8.3797    4.8486   -5.6198 C.3       1 <0>         0.1554
     23 C23         9.1441    6.0926   -6.0861 C.3       1 <0>        -0.0356
     24 C24         8.0800    4.9598    0.7851 C.3       1 <0>        -0.0795
     25 C25         8.7880    6.0338    1.6192 C.3       1 <0>        -0.1203
     26 C26         6.9719    4.2276    1.5544 C.3       1 <0>        -0.0920
     27 C27         9.9095    6.7454    0.8629 C.3       1 <0>         0.1502
     28 C28         6.2906    3.1130    0.7514 C.3       1 <0>         0.0224
     29 N1          6.7058    4.1331   -3.9791 N.am      1 <0>        -0.3553
     30 N2          6.4777    3.0462   -4.8435 N.3       1 <0>        -0.4320
     31 N3          9.3531    3.7833   -5.3380 N.3       1 <0>        -0.9031
     32 N4          9.3732    7.4215   -0.3138 N.3       1 <0>        -0.9068
     33 N5          6.0911    0.1457    1.6201 N.am      1 <0>        -0.5526
     34 N6          5.7762    3.5917   -0.5046 N.am      1 <0>        -0.5576
     35 O1          7.8821    6.0807   -3.5877 O.2       1 <0>        -0.6710
     36 O2          4.0675    2.7325    1.6631 O.2       1 <0>        -0.4901
     37 O3          5.5431    1.2807    3.6019 O.2       1 <0>        -0.5902
     38 O4          7.6924    3.2783   -1.7917 O.2       1 <0>        -0.5833
     39 H1         11.7147    5.1800  -10.7084 H         1 <0>         0.1320
     40 H2         12.8515    4.7366   -8.5485 H         1 <0>         0.1324
     41 H3          9.3897    6.0452  -10.7320 H         1 <0>         0.1328
     42 H4         11.6716    5.1554   -6.4159 H         1 <0>         0.1324
     43 H5          8.2009    6.4675   -8.6050 H         1 <0>         0.1434
     44 H6          6.2329   -4.1227    0.6110 H         1 <0>         0.0405
     45 H7          5.4871   -3.4636   -0.8422 H         1 <0>         0.0421
     46 H8          4.3356   -1.7325    0.4511 H         1 <0>         0.0362
     47 H9          3.9961   -3.3058    1.1637 H         1 <0>         0.0439
     48 H10         7.8774   -2.7635   -0.5827 H         1 <0>         0.0350
     49 H11         6.7768   -1.3914   -0.6467 H         1 <0>         0.0428
     50 H12         4.5228   -1.5882    2.8938 H         1 <0>         0.0663
     51 H13         5.6388   -2.9510    2.9333 H         1 <0>         0.0466
     52 H14         8.0534   -2.6142    1.8474 H         1 <0>         0.0493
     53 H15         8.4235   -1.0439    1.1392 H         1 <0>         0.0520
     54 H16         3.9023    3.8458   -3.8340 H         1 <0>         0.0915
     55 H17         4.1709    2.7289   -2.4768 H         1 <0>         0.0601
     56 H18         7.9078    3.8408   -7.4902 H         1 <0>         0.0688
     57 H19         6.9559    5.2827   -7.2061 H         1 <0>         0.0630
     58 H20         5.7303    1.4383   -3.7336 H         1 <0>         0.0807
     59 H21         4.6390    1.9190   -5.0344 H         1 <0>         0.0380
     60 H22         5.2889    4.1652   -6.1941 H         1 <0>         0.0484
     61 H23         6.0298    2.7205   -6.8794 H         1 <0>         0.0697
     62 H24         5.4651    5.1881   -2.6391 H         1 <0>         0.0843
     63 H25         6.9368   -0.8941    3.1782 H         1 <0>         0.0831
     64 H26         9.8520    6.3858   -5.3087 H         1 <0>         0.0704
     65 H27         8.4405    6.9195   -6.1990 H         1 <0>         0.0718
     66 H28         7.6494    5.4516   -0.0948 H         1 <0>         0.0606
     67 H29         8.8216    4.2418    0.4157 H         1 <0>         0.0458
     68 H30         8.0356    6.7709    1.9287 H         1 <0>         0.0375
     69 H31         9.1825    5.5824    2.5383 H         1 <0>         0.0392
     70 H32         6.2171    4.9575    1.8728 H         1 <0>         0.0606
     71 H33         7.3929    3.7874    2.4660 H         1 <0>         0.0579
     72 H34        10.6735    6.0252    0.5509 H         1 <0>         0.0571
     73 H35        10.3920    7.4923    1.5001 H         1 <0>         0.0503
     74 H36         7.0421    2.3587    0.4881 H         1 <0>         0.0993
     75 H37         9.0331    2.8434   -5.3754 H         1 <0>         0.3700
     76 H38        10.2196    4.0460   -4.9287 H         1 <0>         0.3660
     77 H39        10.0182    7.8250   -0.9589 H         1 <0>         0.3465
     78 H40         8.3988    7.6342   -0.3305 H         1 <0>         0.3446
     79 H41         6.1146    0.2589    0.6111 H         1 <0>         0.3148
     80 H42         4.8120    3.9176   -0.5391 H         1 <0>         0.3220
@<TRIPOS>BOND
     1    1    2 ar
     2    1    3 ar
     3    2    4 ar
     4    3    5 ar
     5    4    6 ar
     6    5    6 ar
     7    6   23 1
     8    7   22 1
     9    7   29 am
    10    7   35 2
    11    8    9 1
    12    8   28 1
    13    8   36 2
    14    9   33 am
    15    9   37 2
    16   10   20 1
    17   10   34 am
    18   10   38 2
    19   11   12 1
    20   11   13 1
    21   12   14 1
    22   13   15 1
    23   14   21 1
    24   15   21 1
    25   16   18 1
    26   16   20 1
    27   17   19 1
    28   17   22 1
    29   18   30 1
    30   19   30 1
    31   20   29 1
    32   21   33 1
    33   22   23 1
    34   22   31 1
    35   24   25 1
    36   24   26 1
    37   25   27 1
    38   26   28 1
    39   27   32 1
    40   28   34 1
    41   29   30 1
    42    1   39 1
    43    2   40 1
    44    3   41 1
    45    4   42 1
    46    5   43 1
    47   11   44 1
    48   11   45 1
    49   12   46 1
    50   12   47 1
    51   13   48 1
    52   13   49 1
    53   14   50 1
    54   14   51 1
    55   15   52 1
    56   15   53 1
    57   16   54 1
    58   16   55 1
    59   17   56 1
    60   17   57 1
    61   18   58 1
    62   18   59 1
    63   19   60 1
    64   19   61 1
    65   20   62 1
    66   21   63 1
    67   23   64 1
    68   23   65 1
    69   24   66 1
    70   24   67 1
    71   25   68 1
    72   25   69 1
    73   26   70 1
    74   26   71 1
    75   27   72 1
    76   27   73 1
    77   28   74 1
    78   31   75 1
    79   31   76 1
    80   32   77 1
    81   32   78 1
    82   33   79 1
    83   34   80 1
@<TRIPOS>MOLECULE
1a46_ligand_148
   80    83     0     0     0
SMALL
USER_CHARGES

mmff94s_NoEstat = 84.13
@<TRIPOS>ATOM
      1 C1         11.2165    5.1344   -9.5699 C.ar      1 <0>        -0.1300
      2 C2         11.8039    4.7828   -8.3546 C.ar      1 <0>        -0.1323
      3 C3          9.9328    5.6797   -9.5922 C.ar      1 <0>        -0.1309
      4 C4         11.1077    4.9765   -7.1616 C.ar      1 <0>        -0.1275
      5 C5          9.2366    5.8734   -8.3991 C.ar      1 <0>        -0.1272
      6 C6          9.8285    5.5206   -7.1916 C.ar      1 <0>        -0.0843
      7 C7          7.4784    4.7027   -4.2310 C.2       1 <0>         0.6709
      8 C8          5.2358    2.3798    1.5634 C.2       1 <0>         0.4867
      9 C9          5.3950    2.3039    3.0538 C.2       1 <0>         0.5883
     10 C10         6.2126    3.1256   -1.7338 C.2       1 <0>         0.6572
     11 C11         3.0492    5.6907    5.7785 C.3       1 <0>        -0.0802
     12 C12         4.4950    5.6297    5.2929 C.3       1 <0>        -0.0765
     13 C13         2.2341    4.4954    5.2920 C.3       1 <0>        -0.0774
     14 C14         5.1576    4.3022    5.6635 C.3       1 <0>        -0.0953
     15 C15         2.9019    3.1705    5.6630 C.3       1 <0>        -0.0906
     16 C16         4.3868    2.9365   -3.4414 C.3       1 <0>        -0.0871
     17 C17         7.2608    4.1580   -6.6868 C.3       1 <0>        -0.0716
     18 C18         5.0537    2.0131   -4.4592 C.3       1 <0>         0.1333
     19 C19         6.0339    3.3363   -6.2552 C.3       1 <0>         0.1246
     20 C20         5.5372    3.7637   -2.9085 C.3       1 <0>         0.0606
     21 C21         4.3575    3.0833    5.1852 C.3       1 <0>         0.1012
     22 C22         8.2469    4.4948   -5.5436 C.3       1 <0>         0.1554
     23 C23         9.0796    5.7289   -5.9083 C.3       1 <0>        -0.0356
     24 C24         8.0800    4.9598    0.7851 C.3       1 <0>        -0.0795
     25 C25         8.7880    6.0338    1.6192 C.3       1 <0>        -0.1203
     26 C26         6.9719    4.2276    1.5544 C.3       1 <0>        -0.0920
     27 C27         9.9095    6.7454    0.8629 C.3       1 <0>         0.1502
     28 C28         6.2906    3.1130    0.7514 C.3       1 <0>         0.0224
     29 N1          6.4904    3.7576   -4.0019 N.am      1 <0>        -0.3553
     30 N2          6.2438    2.7368   -4.9387 N.3       1 <0>        -0.4320
     31 N3          9.1632    3.3713   -5.2994 N.3       1 <0>        -0.9031
     32 N4         10.5470    7.7366    1.7233 N.3       1 <0>        -0.9068
     33 N5          4.4068    2.9859    3.7248 N.am      1 <0>        -0.5526
     34 N6          5.7762    3.5917   -0.5046 N.am      1 <0>        -0.5576
     35 O1          7.7368    5.6223   -3.4546 O.2       1 <0>        -0.6710
     36 O2          4.2060    1.9080    1.0985 O.2       1 <0>        -0.4901
     37 O3          6.3530    1.6912    3.4962 O.2       1 <0>        -0.5902
     38 O4          7.0689    2.2691   -1.9210 O.2       1 <0>        -0.5833
     39 H1         11.7586    4.9835  -10.4989 H         1 <0>         0.1320
     40 H2         12.8034    4.3582   -8.3374 H         1 <0>         0.1324
     41 H3          9.4755    5.9533  -10.5385 H         1 <0>         0.1328
     42 H4         11.5733    4.6996   -6.2195 H         1 <0>         0.1324
     43 H5          8.2369    6.2989   -8.4262 H         1 <0>         0.1434
     44 H6          3.0360    5.7160    6.8752 H         1 <0>         0.0405
     45 H7          2.5829    6.6203    5.4332 H         1 <0>         0.0421
     46 H8          4.5215    5.7666    4.2051 H         1 <0>         0.0362
     47 H9          5.0642    6.4581    5.7300 H         1 <0>         0.0439
     48 H10         1.2293    4.5342    5.7279 H         1 <0>         0.0350
     49 H11         2.1099    4.5562    4.2040 H         1 <0>         0.0428
     50 H12         6.1710    4.2763    5.2448 H         1 <0>         0.0663
     51 H13         5.2635    4.2522    6.7547 H         1 <0>         0.0466
     52 H14         2.8780    3.0554    6.7542 H         1 <0>         0.0493
     53 H15         2.3172    2.3429    5.2434 H         1 <0>         0.0520
     54 H16         3.6738    3.5897   -3.9595 H         1 <0>         0.0915
     55 H17         3.8488    2.3812   -2.6670 H         1 <0>         0.0601
     56 H18         7.7933    3.6252   -7.4865 H         1 <0>         0.0688
     57 H19         6.8963    5.0889   -7.1420 H         1 <0>         0.0630
     58 H20         5.3910    1.1000   -3.9542 H         1 <0>         0.0807
     59 H21         4.3651    1.7081   -5.2548 H         1 <0>         0.0380
     60 H22         5.1498    3.9888   -6.2523 H         1 <0>         0.0484
     61 H23         5.8493    2.5563   -7.0035 H         1 <0>         0.0697
     62 H24         5.2534    4.7844   -2.6367 H         1 <0>         0.0843
     63 H25         4.8183    2.1647    5.5633 H         1 <0>         0.0831
     64 H26         9.7736    5.9418   -5.0932 H         1 <0>         0.0704
     65 H27         8.4167    6.5923   -5.9906 H         1 <0>         0.0718
     66 H28         7.6494    5.4516   -0.0948 H         1 <0>         0.0606
     67 H29         8.8216    4.2418    0.4157 H         1 <0>         0.0458
     68 H30         8.0356    6.7709    1.9287 H         1 <0>         0.0375
     69 H31         9.1825    5.5824    2.5383 H         1 <0>         0.0392
     70 H32         6.2171    4.9575    1.8728 H         1 <0>         0.0606
     71 H33         7.3929    3.7874    2.4660 H         1 <0>         0.0579
     72 H34         9.5108    7.2416   -0.0285 H         1 <0>         0.0571
     73 H35        10.6706    6.0303    0.5375 H         1 <0>         0.0503
     74 H36         7.0421    2.3587    0.4881 H         1 <0>         0.0993
     75 H37         8.8040    2.4509   -5.4050 H         1 <0>         0.3700
     76 H38        10.0264    3.5689   -4.8487 H         1 <0>         0.3660
     77 H39        11.2163    8.3531    1.3147 H         1 <0>         0.3465
     78 H40        10.4498    7.6340    2.7108 H         1 <0>         0.3446
     79 H41         3.6788    3.4423    3.1832 H         1 <0>         0.3148
     80 H42         5.0545    4.3100   -0.4888 H         1 <0>         0.3220
@<TRIPOS>BOND
     1    1    2 ar
     2    1    3 ar
     3    2    4 ar
     4    3    5 ar
     5    4    6 ar
     6    5    6 ar
     7    6   23 1
     8    7   22 1
     9    7   29 am
    10    7   35 2
    11    8    9 1
    12    8   28 1
    13    8   36 2
    14    9   33 am
    15    9   37 2
    16   10   20 1
    17   10   34 am
    18   10   38 2
    19   11   12 1
    20   11   13 1
    21   12   14 1
    22   13   15 1
    23   14   21 1
    24   15   21 1
    25   16   18 1
    26   16   20 1
    27   17   19 1
    28   17   22 1
    29   18   30 1
    30   19   30 1
    31   20   29 1
    32   21   33 1
    33   22   23 1
    34   22   31 1
    35   24   25 1
    36   24   26 1
    37   25   27 1
    38   26   28 1
    39   27   32 1
    40   28   34 1
    41   29   30 1
    42    1   39 1
    43    2   40 1
    44    3   41 1
    45    4   42 1
    46    5   43 1
    47   11   44 1
    48   11   45 1
    49   12   46 1
    50   12   47 1
    51   13   48 1
    52   13   49 1
    53   14   50 1
    54   14   51 1
    55   15   52 1
    56   15   53 1
    57   16   54 1
    58   16   55 1
    59   17   56 1
    60   17   57 1
    61   18   58 1
    62   18   59 1
    63   19   60 1
    64   19   61 1
    65   20   62 1
    66   21   63 1
    67   23   64 1
    68   23   65 1
    69   24   66 1
    70   24   67 1
    71   25   68 1
    72   25   69 1
    73   26   70 1
    74   26   71 1
    75   27   72 1
    76   27   73 1
    77   28   74 1
    78   31   75 1
    79   31   76 1
    80   32   77 1
    81   32   78 1
    82   33   79 1
    83   34   80 1
@<TRIPOS>MOLECULE
1a46_ligand_149
   80    83     0     0     0
SMALL
USER_CHARGES

mmff94s_NoEstat = 84.13
@<TRIPOS>ATOM
      1 C1          9.3778    1.4071  -10.5376 C.ar      1 <0>        -0.1300
      2 C2         10.0902    1.0682   -9.3873 C.ar      1 <0>        -0.1323
      3 C3          8.4252    2.4251  -10.4935 C.ar      1 <0>        -0.1309
      4 C4          9.8499    1.7472   -8.1928 C.ar      1 <0>        -0.1275
      5 C5          8.1849    3.1040   -9.2989 C.ar      1 <0>        -0.1272
      6 C6          8.8988    2.7607   -8.1564 C.ar      1 <0>        -0.0843
      7 C7          7.2708    3.5496   -4.7381 C.2       1 <0>         0.6709
      8 C8          5.2358    2.3798    1.5634 C.2       1 <0>         0.4867
      9 C9          3.8230    2.3549    1.0577 C.2       1 <0>         0.5883
     10 C10         6.2126    3.1256   -1.7338 C.2       1 <0>         0.6572
     11 C11         0.1943    2.5042    4.4055 C.3       1 <0>        -0.0802
     12 C12         0.8241    1.3237    3.6709 C.3       1 <0>        -0.0765
     13 C13         0.8490    3.8286    4.0220 C.3       1 <0>        -0.0774
     14 C14         0.8252    1.5389    2.1568 C.3       1 <0>        -0.0953
     15 C15         0.8496    4.0381    2.5071 C.3       1 <0>        -0.0906
     16 C16         4.0677    3.4116   -2.9998 C.3       1 <0>        -0.0871
     17 C17         6.2374    2.7118   -6.8841 C.3       1 <0>        -0.0716
     18 C18         4.0600    2.1270   -3.8260 C.3       1 <0>         0.1333
     19 C19         4.9528    2.5709   -6.0494 C.3       1 <0>         0.1246
     20 C20         5.5372    3.7637   -2.9085 C.3       1 <0>         0.0606
     21 C21         1.4786    2.8646    1.7442 C.3       1 <0>         0.1012
     22 C22         7.5393    2.8062   -6.0542 C.3       1 <0>         0.1554
     23 C23         8.6404    3.4910   -6.8715 C.3       1 <0>        -0.0356
     24 C24         8.0800    4.9598    0.7851 C.3       1 <0>        -0.0795
     25 C25         8.7880    6.0338    1.6192 C.3       1 <0>        -0.1203
     26 C26         6.9719    4.2276    1.5544 C.3       1 <0>        -0.0920
     27 C27         9.9095    6.7454    0.8629 C.3       1 <0>         0.1502
     28 C28         6.2906    3.1130    0.7514 C.3       1 <0>         0.0224
     29 N1          6.1017    3.1624   -4.1017 N.am      1 <0>        -0.3553
     30 N2          5.2634    2.1873   -4.6736 N.3       1 <0>        -0.4320
     31 N3          8.0097    1.4670   -5.6708 N.3       1 <0>        -0.9031
     32 N4         10.5470    7.7366    1.7233 N.3       1 <0>        -0.9068
     33 N5          2.9218    2.8162    1.9889 N.am      1 <0>        -0.5526
     34 N6          5.7762    3.5917   -0.5046 N.am      1 <0>        -0.5576
     35 O1          8.0408    4.4006   -4.2931 O.2       1 <0>        -0.6710
     36 O2          5.4669    1.7271    2.5732 O.2       1 <0>        -0.4901
     37 O3          3.6258    1.9273   -0.0679 O.2       1 <0>        -0.5902
     38 O4          7.0689    2.2691   -1.9210 O.2       1 <0>        -0.5833
     39 H1          9.5648    0.8784  -11.4677 H         1 <0>         0.1320
     40 H2         10.8319    0.2756   -9.4218 H         1 <0>         0.1324
     41 H3          7.8704    2.6887  -11.3892 H         1 <0>         0.1328
     42 H4         10.4098    1.4763   -7.3016 H         1 <0>         0.1324
     43 H5          7.4407    3.8957   -9.2740 H         1 <0>         0.1434
     44 H6         -0.8764    2.5478    4.1705 H         1 <0>         0.0405
     45 H7          0.2765    2.3517    5.4876 H         1 <0>         0.0421
     46 H8          1.8516    1.1783    4.0256 H         1 <0>         0.0362
     47 H9          0.2739    0.4065    3.9103 H         1 <0>         0.0439
     48 H10         0.3166    4.6552    4.5063 H         1 <0>         0.0350
     49 H11         1.8783    3.8505    4.3999 H         1 <0>         0.0428
     50 H12         1.3389    0.6988    1.6740 H         1 <0>         0.0663
     51 H13        -0.2116    1.5264    1.7970 H         1 <0>         0.0466
     52 H14        -0.1857    4.1693    2.1674 H         1 <0>         0.0493
     53 H15         1.3811    4.9684    2.2727 H         1 <0>         0.0520
     54 H16         3.5352    4.1976   -3.5496 H         1 <0>         0.0915
     55 H17         3.5853    3.2820   -2.0262 H         1 <0>         0.0601
     56 H18         6.3096    1.8704   -7.5867 H         1 <0>         0.0688
     57 H19         6.1343    3.6107   -7.5070 H         1 <0>         0.0630
     58 H20         4.1583    1.2642   -3.1562 H         1 <0>         0.0807
     59 H21         3.1259    1.9993   -4.3842 H         1 <0>         0.0380
     60 H22         4.4028    3.5219   -6.0765 H         1 <0>         0.0484
     61 H23         4.3072    1.8183   -6.5178 H         1 <0>         0.0697
     62 H24         5.7284    4.8402   -2.8795 H         1 <0>         0.0843
     63 H25         1.3617    3.0169    0.6661 H         1 <0>         0.0831
     64 H26         9.5506    3.5379   -6.2709 H         1 <0>         0.0704
     65 H27         8.3431    4.5219   -7.0731 H         1 <0>         0.0718
     66 H28         7.6494    5.4516   -0.0948 H         1 <0>         0.0606
     67 H29         8.8216    4.2418    0.4157 H         1 <0>         0.0458
     68 H30         8.0356    6.7709    1.9287 H         1 <0>         0.0375
     69 H31         9.1825    5.5824    2.5383 H         1 <0>         0.0392
     70 H32         6.2171    4.9575    1.8728 H         1 <0>         0.0606
     71 H33         7.3929    3.7874    2.4660 H         1 <0>         0.0579
     72 H34         9.5108    7.2416   -0.0285 H         1 <0>         0.0571
     73 H35        10.6706    6.0303    0.5375 H         1 <0>         0.0503
     74 H36         7.0421    2.3587    0.4881 H         1 <0>         0.0993
     75 H37         7.3242    0.7786   -5.4626 H         1 <0>         0.3700
     76 H38         8.9706    1.3637   -5.4396 H         1 <0>         0.3660
     77 H39        11.2163    8.3531    1.3147 H         1 <0>         0.3465
     78 H40        10.4498    7.6340    2.7108 H         1 <0>         0.3446
     79 H41         3.2728    3.1375    2.8861 H         1 <0>         0.3148
     80 H42         5.0545    4.3100   -0.4888 H         1 <0>         0.3220
@<TRIPOS>BOND
     1    1    2 ar
     2    1    3 ar
     3    2    4 ar
     4    3    5 ar
     5    4    6 ar
     6    5    6 ar
     7    6   23 1
     8    7   22 1
     9    7   29 am
    10    7   35 2
    11    8    9 1
    12    8   28 1
    13    8   36 2
    14    9   33 am
    15    9   37 2
    16   10   20 1
    17   10   34 am
    18   10   38 2
    19   11   12 1
    20   11   13 1
    21   12   14 1
    22   13   15 1
    23   14   21 1
    24   15   21 1
    25   16   18 1
    26   16   20 1
    27   17   19 1
    28   17   22 1
    29   18   30 1
    30   19   30 1
    31   20   29 1
    32   21   33 1
    33   22   23 1
    34   22   31 1
    35   24   25 1
    36   24   26 1
    37   25   27 1
    38   26   28 1
    39   27   32 1
    40   28   34 1
    41   29   30 1
    42    1   39 1
    43    2   40 1
    44    3   41 1
    45    4   42 1
    46    5   43 1
    47   11   44 1
    48   11   45 1
    49   12   46 1
    50   12   47 1
    51   13   48 1
    52   13   49 1
    53   14   50 1
    54   14   51 1
    55   15   52 1
    56   15   53 1
    57   16   54 1
    58   16   55 1
    59   17   56 1
    60   17   57 1
    61   18   58 1
    62   18   59 1
    63   19   60 1
    64   19   61 1
    65   20   62 1
    66   21   63 1
    67   23   64 1
    68   23   65 1
    69   24   66 1
    70   24   67 1
    71   25   68 1
    72   25   69 1
    73   26   70 1
    74   26   71 1
    75   27   72 1
    76   27   73 1
    77   28   74 1
    78   31   75 1
    79   31   76 1
    80   32   77 1
    81   32   78 1
    82   33   79 1
    83   34   80 1
@<TRIPOS>MOLECULE
1a46_ligand_150
   80    83     0     0     0
SMALL
USER_CHARGES

mmff94s_NoEstat = 84.15
@<TRIPOS>ATOM
      1 C1         10.9138    9.4482   -8.1015 C.ar      1 <0>        -0.1300
      2 C2         11.4397    9.2331   -6.8277 C.ar      1 <0>        -0.1323
      3 C3          9.5409    9.3301   -8.3183 C.ar      1 <0>        -0.1309
      4 C4         10.5929    8.8997   -5.7706 C.ar      1 <0>        -0.1275
      5 C5          8.6940    8.9967   -7.2613 C.ar      1 <0>        -0.1272
      6 C6          9.2255    8.7837   -5.9943 C.ar      1 <0>        -0.0843
      7 C7          7.2127    6.5340   -3.5767 C.2       1 <0>         0.6709
      8 C8          5.2358    2.3798    1.5634 C.2       1 <0>         0.4867
      9 C9          3.8230    2.3549    1.0577 C.2       1 <0>         0.5883
     10 C10         6.5648    4.1956   -1.4701 C.2       1 <0>         0.6572
     11 C11         1.8228    6.5862   -0.5211 C.3       1 <0>        -0.0802
     12 C12         2.4339    5.4224   -1.2970 C.3       1 <0>        -0.0765
     13 C13         1.8899    6.3629    0.9874 C.3       1 <0>        -0.0774
     14 C14         1.8085    4.0866   -0.8927 C.3       1 <0>        -0.0953
     15 C15         1.2661    5.0248    1.3864 C.3       1 <0>        -0.0906
     16 C16         5.2894    3.4365   -3.4907 C.3       1 <0>        -0.0871
     17 C17         7.5966    6.3248   -6.0635 C.3       1 <0>        -0.0716
     18 C18         6.4415    3.0935   -4.4329 C.3       1 <0>         0.1333
     19 C19         6.8768    4.9725   -5.9219 C.3       1 <0>         0.1246
     20 C20         5.8189    4.6139   -2.6998 C.3       1 <0>         0.0606
     21 C21         1.8637    3.8371    0.6204 C.3       1 <0>         0.1012
     22 C22         8.1441    6.9065   -4.7389 C.3       1 <0>         0.1554
     23 C23         8.3146    8.4251   -4.8573 C.3       1 <0>        -0.0356
     24 C24         6.0158    5.3379    2.0114 C.3       1 <0>        -0.0795
     25 C25         6.7209    6.4716    2.7653 C.3       1 <0>        -0.1203
     26 C26         6.9719    4.2276    1.5544 C.3       1 <0>        -0.0920
     27 C27         5.7742    7.5909    3.1979 C.3       1 <0>         0.1502
     28 C28         6.2906    3.1130    0.7514 C.3       1 <0>         0.0224
     29 N1          6.7850    5.2155   -3.5990 N.am      1 <0>        -0.3553
     30 N2          7.1829    4.3503   -4.6352 N.3       1 <0>        -0.4320
     31 N3          9.4504    6.3160   -4.4124 N.3       1 <0>        -0.9031
     32 N4          4.7531    7.0666    4.0988 N.3       1 <0>        -0.9068
     33 N5          3.2455    3.6032    1.0456 N.am      1 <0>        -0.5526
     34 N6          5.7762    3.5917   -0.5046 N.am      1 <0>        -0.5576
     35 O1          6.8943    7.3404   -2.7030 O.2       1 <0>        -0.6710
     36 O2          5.4669    1.7271    2.5732 O.2       1 <0>        -0.4901
     37 O3          3.3466    1.2762    0.7444 O.2       1 <0>        -0.5902
     38 O4          7.7705    4.4014   -1.3956 O.2       1 <0>        -0.5833
     39 H1         11.5731    9.7077   -8.9246 H         1 <0>         0.1320
     40 H2         12.5087    9.3251   -6.6590 H         1 <0>         0.1324
     41 H3          9.1315    9.4975   -9.3103 H         1 <0>         0.1328
     42 H4         11.0116    8.7339   -4.7816 H         1 <0>         0.1324
     43 H5          7.6258    8.9068   -7.4396 H         1 <0>         0.1434
     44 H6          2.3424    7.5157   -0.7800 H         1 <0>         0.0405
     45 H7          0.7755    6.7123   -0.8225 H         1 <0>         0.0421
     46 H8          2.2930    5.5831   -2.3719 H         1 <0>         0.0362
     47 H9          3.5159    5.3936   -1.1201 H         1 <0>         0.0439
     48 H10         2.9356    6.3974    1.3160 H         1 <0>         0.0350
     49 H11         1.3691    7.1782    1.5026 H         1 <0>         0.0428
     50 H12         0.7602    4.0740   -1.2174 H         1 <0>         0.0663
     51 H13         2.3165    3.2749   -1.4274 H         1 <0>         0.0466
     52 H14         1.3895    4.8778    2.4663 H         1 <0>         0.0493
     53 H15         0.1866    5.0661    1.1927 H         1 <0>         0.0520
     54 H16         4.4210    3.7522   -4.0822 H         1 <0>         0.0915
     55 H17         4.9944    2.5859   -2.8686 H         1 <0>         0.0601
     56 H18         8.4161    6.2273   -6.7886 H         1 <0>         0.0688
     57 H19         6.8879    7.0354   -6.5102 H         1 <0>         0.0630
     58 H20         7.1117    2.3782   -3.9411 H         1 <0>         0.0807
     59 H21         6.0926    2.6259   -5.3603 H         1 <0>         0.0380
     60 H22         5.7950    5.1300   -6.0337 H         1 <0>         0.0484
     61 H23         7.1882    4.3180   -6.7448 H         1 <0>         0.0697
     62 H24         5.0453    5.3316   -2.4125 H         1 <0>         0.0843
     63 H25         1.3149    2.9221    0.8665 H         1 <0>         0.0831
     64 H26         8.7103    8.8118   -3.9164 H         1 <0>         0.0704
     65 H27         7.3333    8.8822   -4.9974 H         1 <0>         0.0718
     66 H28         5.2579    4.9142    2.6804 H         1 <0>         0.0606
     67 H29         5.4809    5.7546    1.1500 H         1 <0>         0.0458
     68 H30         7.2000    6.0392    3.6534 H         1 <0>         0.0375
     69 H31         7.5258    6.8807    2.1417 H         1 <0>         0.0392
     70 H32         7.4599    3.7926    2.4354 H         1 <0>         0.0606
     71 H33         7.7645    4.6634    0.9347 H         1 <0>         0.0579
     72 H34         5.2908    8.0386    2.3228 H         1 <0>         0.0571
     73 H35         6.3225    8.3806    3.7198 H         1 <0>         0.0503
     74 H36         7.0421    2.3587    0.4881 H         1 <0>         0.0993
     75 H37         9.5975    5.3617   -4.6467 H         1 <0>         0.3700
     76 H38        10.0459    6.8226   -3.7991 H         1 <0>         0.3660
     77 H39         4.0028    7.6695    4.3608 H         1 <0>         0.3465
     78 H40         4.9421    6.2118    4.5770 H         1 <0>         0.3446
     79 H41         3.8022    4.3983    1.3448 H         1 <0>         0.3148
     80 H42         4.7816    3.4809   -0.6931 H         1 <0>         0.3220
@<TRIPOS>BOND
     1    1    2 ar
     2    1    3 ar
     3    2    4 ar
     4    3    5 ar
     5    4    6 ar
     6    5    6 ar
     7    6   23 1
     8    7   22 1
     9    7   29 am
    10    7   35 2
    11    8    9 1
    12    8   28 1
    13    8   36 2
    14    9   33 am
    15    9   37 2
    16   10   20 1
    17   10   34 am
    18   10   38 2
    19   11   12 1
    20   11   13 1
    21   12   14 1
    22   13   15 1
    23   14   21 1
    24   15   21 1
    25   16   18 1
    26   16   20 1
    27   17   19 1
    28   17   22 1
    29   18   30 1
    30   19   30 1
    31   20   29 1
    32   21   33 1
    33   22   23 1
    34   22   31 1
    35   24   25 1
    36   24   26 1
    37   25   27 1
    38   26   28 1
    39   27   32 1
    40   28   34 1
    41   29   30 1
    42    1   39 1
    43    2   40 1
    44    3   41 1
    45    4   42 1
    46    5   43 1
    47   11   44 1
    48   11   45 1
    49   12   46 1
    50   12   47 1
    51   13   48 1
    52   13   49 1
    53   14   50 1
    54   14   51 1
    55   15   52 1
    56   15   53 1
    57   16   54 1
    58   16   55 1
    59   17   56 1
    60   17   57 1
    61   18   58 1
    62   18   59 1
    63   19   60 1
    64   19   61 1
    65   20   62 1
    66   21   63 1
    67   23   64 1
    68   23   65 1
    69   24   66 1
    70   24   67 1
    71   25   68 1
    72   25   69 1
    73   26   70 1
    74   26   71 1
    75   27   72 1
    76   27   73 1
    77   28   74 1
    78   31   75 1
    79   31   76 1
    80   32   77 1
    81   32   78 1
    82   33   79 1
    83   34   80 1
@<TRIPOS>MOLECULE
1a46_ligand_151
   80    83     0     0     0
SMALL
USER_CHARGES

mmff94s_NoEstat = 84.19
@<TRIPOS>ATOM
      1 C1         -7.7455    8.1925  -11.7378 C.ar      1 <0>        -0.1300
      2 C2         -6.4538    8.7176  -11.7053 C.ar      1 <0>        -0.1323
      3 C3         -8.1013    7.1613  -10.8684 C.ar      1 <0>        -0.1309
      4 C4         -5.5176    8.2116  -10.8036 C.ar      1 <0>        -0.1275
      5 C5         -7.1651    6.6552   -9.9666 C.ar      1 <0>        -0.1272
      6 C6         -5.8794    7.1836   -9.9401 C.ar      1 <0>        -0.0843
      7 C7         -3.0518    4.9149   -8.5929 C.2       1 <0>         0.6709
      8 C8          2.7796    3.2097   -6.1637 C.2       1 <0>         0.4867
      9 C9          4.2189    2.8058   -6.2975 C.2       1 <0>         0.5883
     10 C10        -0.2306    3.3845   -8.4382 C.2       1 <0>         0.6572
     11 C11         9.1289    4.8407   -7.2799 C.3       1 <0>        -0.0802
     12 C12         8.4240    3.7484   -8.0791 C.3       1 <0>        -0.0765
     13 C13         8.7403    4.7992   -5.8048 C.3       1 <0>        -0.0774
     14 C14         6.9083    3.8056   -7.8965 C.3       1 <0>        -0.0953
     15 C15         7.2249    4.8584   -5.6197 C.3       1 <0>        -0.0906
     16 C16        -1.8342    1.4799   -8.7324 C.3       1 <0>        -0.0871
     17 C17        -5.0487    4.3542  -10.0327 C.3       1 <0>        -0.0716
     18 C18        -2.3033    1.7312  -10.1641 C.3       1 <0>         0.1333
     19 C19        -4.4074    2.9598  -10.1390 C.3       1 <0>         0.1246
     20 C20        -1.6152    2.8736   -8.1831 C.3       1 <0>         0.0606
     21 C21         6.5220    3.7522   -6.4143 C.3       1 <0>         0.1012
     22 C22        -4.0838    5.4758   -9.5814 C.3       1 <0>         0.1554
     23 C23        -4.8724    6.6393   -8.9701 C.3       1 <0>        -0.0356
     24 C24         1.5857    6.0302   -6.5865 C.3       1 <0>        -0.0795
     25 C25         1.6811    7.5259   -6.9095 C.3       1 <0>        -0.1203
     26 C26         2.1570    5.1335   -7.6933 C.3       1 <0>        -0.0920
     27 C27         1.0885    8.4192   -5.8200 C.3       1 <0>         0.1502
     28 C28         2.0196    3.6328   -7.4097 C.3       1 <0>         0.0224
     29 N1         -2.5211    3.6904   -8.9681 N.am      1 <0>        -0.3553
     30 N2         -2.9489    3.0553  -10.1488 N.3       1 <0>        -0.4320
     31 N3         -3.3108    5.9870  -10.7228 N.3       1 <0>        -0.9031
     32 N4          1.1980    9.8225   -6.2046 N.3       1 <0>        -0.9068
     33 N5          5.0731    3.8835   -6.2736 N.am      1 <0>        -0.5526
     34 N6          0.6426    3.2153   -7.3763 N.am      1 <0>        -0.5576
     35 O1         -2.7244    5.5164   -7.5701 O.2       1 <0>        -0.6710
     36 O2          2.3266    3.2509   -5.0269 O.2       1 <0>        -0.4901
     37 O3          4.4699    1.6191   -6.4296 O.2       1 <0>        -0.5902
     38 O4          0.0350    3.8958   -9.5198 O.2       1 <0>        -0.5833
     39 H1         -8.4745    8.5865  -12.4399 H         1 <0>         0.1320
     40 H2         -6.1769    9.5206  -12.3823 H         1 <0>         0.1324
     41 H3         -9.1071    6.7523  -10.8939 H         1 <0>         0.1328
     42 H4         -4.5135    8.6269  -10.7854 H         1 <0>         0.1324
     43 H5         -7.4512    5.8517   -9.2932 H         1 <0>         0.1434
     44 H6         10.2144    4.7275   -7.3785 H         1 <0>         0.0405
     45 H7          8.8701    5.8216   -7.6973 H         1 <0>         0.0421
     46 H8          8.6712    3.8513   -9.1417 H         1 <0>         0.0362
     47 H9          8.7922    2.7659   -7.7589 H         1 <0>         0.0439
     48 H10         9.1270    3.8788   -5.3503 H         1 <0>         0.0350
     49 H11         9.2088    5.6374   -5.2767 H         1 <0>         0.0428
     50 H12         6.5209    4.7264   -8.3524 H         1 <0>         0.0663
     51 H13         6.4410    2.9725   -8.4356 H         1 <0>         0.0466
     52 H14         6.9807    4.7671   -4.5544 H         1 <0>         0.0493
     53 H15         6.8567    5.8421   -5.9396 H         1 <0>         0.0520
     54 H16        -2.6369    0.9859   -8.1710 H         1 <0>         0.0915
     55 H17        -0.9427    0.8466   -8.6926 H         1 <0>         0.0601
     56 H18        -5.4989    4.6229  -10.9981 H         1 <0>         0.0688
     57 H19        -5.8853    4.2840   -9.3243 H         1 <0>         0.0630
     58 H20        -1.4316    1.7851  -10.8273 H         1 <0>         0.0807
     59 H21        -2.9449    0.9252  -10.5369 H         1 <0>         0.0380
     60 H22        -4.7542    2.3419   -9.2992 H         1 <0>         0.0484
     61 H23        -4.7632    2.4757  -11.0564 H         1 <0>         0.0697
     62 H24        -1.8289    2.9613   -7.1141 H         1 <0>         0.0843
     63 H25         6.7837    2.7727   -5.9978 H         1 <0>         0.0831
     64 H26        -4.1735    7.4215   -8.6684 H         1 <0>         0.0704
     65 H27        -5.3683    6.2928   -8.0614 H         1 <0>         0.0718
     66 H28         2.1358    5.8550   -5.6547 H         1 <0>         0.0606
     67 H29         0.5392    5.7688   -6.3906 H         1 <0>         0.0458
     68 H30         2.7419    7.7748   -7.0444 H         1 <0>         0.0375
     69 H31         1.1870    7.7255   -7.8687 H         1 <0>         0.0392
     70 H32         3.2164    5.3787   -7.8393 H         1 <0>         0.0606
     71 H33         1.6466    5.3535   -8.6384 H         1 <0>         0.0579
     72 H34         1.6137    8.2608   -4.8719 H         1 <0>         0.0571
     73 H35         0.0315    8.1861   -5.6617 H         1 <0>         0.0503
     74 H36         2.4714    3.0747   -8.2388 H         1 <0>         0.0993
     75 H37        -3.0417    5.3386  -11.4260 H         1 <0>         0.3700
     76 H38        -2.9200    6.8973  -10.6453 H         1 <0>         0.3660
     77 H39         0.9557   10.5154   -5.5293 H         1 <0>         0.3465
     78 H40         1.3102   10.0373   -7.1723 H         1 <0>         0.3446
     79 H41         4.6795    4.8120   -6.1527 H         1 <0>         0.3148
     80 H42         0.2924    2.7728   -6.5286 H         1 <0>         0.3220
@<TRIPOS>BOND
     1    1    2 ar
     2    1    3 ar
     3    2    4 ar
     4    3    5 ar
     5    4    6 ar
     6    5    6 ar
     7    6   23 1
     8    7   22 1
     9    7   29 am
    10    7   35 2
    11    8    9 1
    12    8   28 1
    13    8   36 2
    14    9   33 am
    15    9   37 2
    16   10   20 1
    17   10   34 am
    18   10   38 2
    19   11   12 1
    20   11   13 1
    21   12   14 1
    22   13   15 1
    23   14   21 1
    24   15   21 1
    25   16   18 1
    26   16   20 1
    27   17   19 1
    28   17   22 1
    29   18   30 1
    30   19   30 1
    31   20   29 1
    32   21   33 1
    33   22   23 1
    34   22   31 1
    35   24   25 1
    36   24   26 1
    37   25   27 1
    38   26   28 1
    39   27   32 1
    40   28   34 1
    41   29   30 1
    42    1   39 1
    43    2   40 1
    44    3   41 1
    45    4   42 1
    46    5   43 1
    47   11   44 1
    48   11   45 1
    49   12   46 1
    50   12   47 1
    51   13   48 1
    52   13   49 1
    53   14   50 1
    54   14   51 1
    55   15   52 1
    56   15   53 1
    57   16   54 1
    58   16   55 1
    59   17   56 1
    60   17   57 1
    61   18   58 1
    62   18   59 1
    63   19   60 1
    64   19   61 1
    65   20   62 1
    66   21   63 1
    67   23   64 1
    68   23   65 1
    69   24   66 1
    70   24   67 1
    71   25   68 1
    72   25   69 1
    73   26   70 1
    74   26   71 1
    75   27   72 1
    76   27   73 1
    77   28   74 1
    78   31   75 1
    79   31   76 1
    80   32   77 1
    81   32   78 1
    82   33   79 1
    83   34   80 1
@<TRIPOS>MOLECULE
1a46_ligand_152
   80    83     0     0     0
SMALL
USER_CHARGES

mmff94s_NoEstat = 84.19
@<TRIPOS>ATOM
      1 C1         -4.2961    6.3604   -2.7495 C.ar      1 <0>        -0.1300
      2 C2         -3.8917    5.7888   -1.5431 C.ar      1 <0>        -0.1323
      3 C3         -3.4839    6.2539   -3.8786 C.ar      1 <0>        -0.1309
      4 C4         -2.6752    5.1109   -1.4657 C.ar      1 <0>        -0.1275
      5 C5         -2.2674    5.5759   -3.8012 C.ar      1 <0>        -0.1272
      6 C6         -1.8709    5.0088   -2.5952 C.ar      1 <0>        -0.0843
      7 C7          1.9202    4.4855   -2.0375 C.2       1 <0>         0.6709
      8 C8          5.2358    2.3798    1.5634 C.2       1 <0>         0.4867
      9 C9          5.3950    2.3039    3.0538 C.2       1 <0>         0.5883
     10 C10         4.7954    4.5647   -0.6048 C.2       1 <0>         0.6572
     11 C11         3.0492    5.6907    5.7785 C.3       1 <0>        -0.0802
     12 C12         4.4950    5.6297    5.2929 C.3       1 <0>        -0.0765
     13 C13         2.2341    4.4954    5.2920 C.3       1 <0>        -0.0774
     14 C14         5.1576    4.3022    5.6635 C.3       1 <0>        -0.0953
     15 C15         2.9019    3.1705    5.6630 C.3       1 <0>        -0.0906
     16 C16         5.1345    6.1376   -2.5274 C.3       1 <0>        -0.0871
     17 C17         0.6797    6.3873   -3.1418 C.3       1 <0>        -0.0716
     18 C18         4.2227    7.2889   -2.1078 C.3       1 <0>         0.1333
     19 C19         2.0578    7.0682   -3.2043 C.3       1 <0>         0.1246
     20 C20         4.4137    4.9104   -2.0113 C.3       1 <0>         0.0606
     21 C21         4.3575    3.0833    5.1852 C.3       1 <0>         0.1012
     22 C22         0.5786    5.2268   -2.1241 C.3       1 <0>         0.1554
     23 C23        -0.5623    4.2796   -2.5120 C.3       1 <0>        -0.0356
     24 C24         8.0800    4.9598    0.7851 C.3       1 <0>        -0.0795
     25 C25         8.7880    6.0338    1.6192 C.3       1 <0>        -0.1203
     26 C26         6.9719    4.2276    1.5544 C.3       1 <0>        -0.0920
     27 C27         9.9095    6.7454    0.8629 C.3       1 <0>         0.1502
     28 C28         6.2906    3.1130    0.7514 C.3       1 <0>         0.0224
     29 N1          3.0235    5.3233   -1.9852 N.am      1 <0>        -0.3553
     30 N2          2.8653    6.7208   -2.0365 N.3       1 <0>        -0.4320
     31 N3          0.3159    5.7420   -0.7724 N.3       1 <0>        -0.9031
     32 N4         10.5470    7.7366    1.7233 N.3       1 <0>        -0.9068
     33 N5          4.4068    2.9859    3.7248 N.am      1 <0>        -0.5526
     34 N6          5.7762    3.5917   -0.5046 N.am      1 <0>        -0.5576
     35 O1          1.9934    3.2573   -2.0040 O.2       1 <0>        -0.6710
     36 O2          4.2060    1.9080    1.0985 O.2       1 <0>        -0.4901
     37 O3          6.3530    1.6912    3.4962 O.2       1 <0>        -0.5902
     38 O4          4.2448    5.1367    0.3286 O.2       1 <0>        -0.5833
     39 H1         -5.2433    6.8883   -2.8098 H         1 <0>         0.1320
     40 H2         -4.5242    5.8718   -0.6641 H         1 <0>         0.1324
     41 H3         -3.7988    6.6991   -4.8178 H         1 <0>         0.1328
     42 H4         -2.3683    4.6687   -0.5215 H         1 <0>         0.1324
     43 H5         -1.6411    5.4981   -4.6860 H         1 <0>         0.1434
     44 H6          3.0360    5.7160    6.8752 H         1 <0>         0.0405
     45 H7          2.5829    6.6203    5.4332 H         1 <0>         0.0421
     46 H8          4.5215    5.7666    4.2051 H         1 <0>         0.0362
     47 H9          5.0642    6.4581    5.7300 H         1 <0>         0.0439
     48 H10         1.2293    4.5342    5.7279 H         1 <0>         0.0350
     49 H11         2.1099    4.5562    4.2040 H         1 <0>         0.0428
     50 H12         6.1710    4.2763    5.2448 H         1 <0>         0.0663
     51 H13         5.2635    4.2522    6.7547 H         1 <0>         0.0466
     52 H14         2.8780    3.0554    6.7542 H         1 <0>         0.0493
     53 H15         2.3172    2.3429    5.2434 H         1 <0>         0.0520
     54 H16         5.1868    6.0993   -3.6226 H         1 <0>         0.0915
     55 H17         6.1502    6.2483   -2.1355 H         1 <0>         0.0601
     56 H18        -0.0889    7.1398   -2.9187 H         1 <0>         0.0688
     57 H19         0.4458    6.0134   -4.1479 H         1 <0>         0.0630
     58 H20         4.5037    7.6265   -1.1030 H         1 <0>         0.0807
     59 H21         4.3115    8.1522   -2.7765 H         1 <0>         0.0380
     60 H22         2.5627    6.7687   -4.1331 H         1 <0>         0.0484
     61 H23         1.9139    8.1541   -3.2580 H         1 <0>         0.0697
     62 H24         4.5519    4.0254   -2.6387 H         1 <0>         0.0843
     63 H25         4.8183    2.1647    5.5633 H         1 <0>         0.0831
     64 H26        -0.6211    3.4755   -1.7762 H         1 <0>         0.0704
     65 H27        -0.3254    3.8127   -3.4698 H         1 <0>         0.0718
     66 H28         7.6494    5.4516   -0.0948 H         1 <0>         0.0606
     67 H29         8.8216    4.2418    0.4157 H         1 <0>         0.0458
     68 H30         8.0356    6.7709    1.9287 H         1 <0>         0.0375
     69 H31         9.1825    5.5824    2.5383 H         1 <0>         0.0392
     70 H32         6.2171    4.9575    1.8728 H         1 <0>         0.0606
     71 H33         7.3929    3.7874    2.4660 H         1 <0>         0.0579
     72 H34         9.5108    7.2416   -0.0285 H         1 <0>         0.0571
     73 H35        10.6706    6.0303    0.5375 H         1 <0>         0.0503
     74 H36         7.0421    2.3587    0.4881 H         1 <0>         0.0993
     75 H37         0.7364    6.6054   -0.5173 H         1 <0>         0.3700
     76 H38        -0.0926    5.1211   -0.1128 H         1 <0>         0.3660
     77 H39        11.2163    8.3531    1.3147 H         1 <0>         0.3465
     78 H40        10.4498    7.6340    2.7108 H         1 <0>         0.3446
     79 H41         3.6788    3.4423    3.1832 H         1 <0>         0.3148
     80 H42         6.1527    3.1949   -1.3636 H         1 <0>         0.3220
@<TRIPOS>BOND
     1    1    2 ar
     2    1    3 ar
     3    2    4 ar
     4    3    5 ar
     5    4    6 ar
     6    5    6 ar
     7    6   23 1
     8    7   22 1
     9    7   29 am
    10    7   35 2
    11    8    9 1
    12    8   28 1
    13    8   36 2
    14    9   33 am
    15    9   37 2
    16   10   20 1
    17   10   34 am
    18   10   38 2
    19   11   12 1
    20   11   13 1
    21   12   14 1
    22   13   15 1
    23   14   21 1
    24   15   21 1
    25   16   18 1
    26   16   20 1
    27   17   19 1
    28   17   22 1
    29   18   30 1
    30   19   30 1
    31   20   29 1
    32   21   33 1
    33   22   23 1
    34   22   31 1
    35   24   25 1
    36   24   26 1
    37   25   27 1
    38   26   28 1
    39   27   32 1
    40   28   34 1
    41   29   30 1
    42    1   39 1
    43    2   40 1
    44    3   41 1
    45    4   42 1
    46    5   43 1
    47   11   44 1
    48   11   45 1
    49   12   46 1
    50   12   47 1
    51   13   48 1
    52   13   49 1
    53   14   50 1
    54   14   51 1
    55   15   52 1
    56   15   53 1
    57   16   54 1
    58   16   55 1
    59   17   56 1
    60   17   57 1
    61   18   58 1
    62   18   59 1
    63   19   60 1
    64   19   61 1
    65   20   62 1
    66   21   63 1
    67   23   64 1
    68   23   65 1
    69   24   66 1
    70   24   67 1
    71   25   68 1
    72   25   69 1
    73   26   70 1
    74   26   71 1
    75   27   72 1
    76   27   73 1
    77   28   74 1
    78   31   75 1
    79   31   76 1
    80   32   77 1
    81   32   78 1
    82   33   79 1
    83   34   80 1
@<TRIPOS>MOLECULE
1a46_ligand_153
   80    83     0     0     0
SMALL
USER_CHARGES

mmff94s_NoEstat = 84.20
@<TRIPOS>ATOM
      1 C1          9.3427    1.2226  -10.2936 C.ar      1 <0>        -0.1300
      2 C2          9.9666    0.8172   -9.1138 C.ar      1 <0>        -0.1323
      3 C3          8.4336    2.2805  -10.2739 C.ar      1 <0>        -0.1309
      4 C4          9.6814    1.4695   -7.9143 C.ar      1 <0>        -0.1275
      5 C5          8.1485    2.9328   -9.0744 C.ar      1 <0>        -0.1272
      6 C6          8.7742    2.5231   -7.9024 C.ar      1 <0>        -0.0843
      7 C7          6.9710    3.2795   -4.5657 C.2       1 <0>         0.6709
      8 C8          5.2358    2.3798    1.5634 C.2       1 <0>         0.4867
      9 C9          4.9672    2.8271    2.9706 C.2       1 <0>         0.5883
     10 C10         5.7098    2.8119   -1.6475 C.2       1 <0>         0.6572
     11 C11         3.0566    7.3368    3.6101 C.3       1 <0>        -0.0802
     12 C12         4.4991    6.8448    3.6944 C.3       1 <0>        -0.0765
     13 C13         2.0921    6.2130    3.2404 C.3       1 <0>        -0.0774
     14 C14         4.6316    5.6493    4.6388 C.3       1 <0>        -0.0953
     15 C15         2.2302    5.0192    4.1862 C.3       1 <0>        -0.0906
     16 C16         3.6624    3.2324   -3.0320 C.3       1 <0>        -0.0871
     17 C17         6.0388    2.5547   -6.7975 C.3       1 <0>        -0.0716
     18 C18         3.6514    1.9752   -3.8994 C.3       1 <0>         0.1333
     19 C19         4.6996    2.4463   -6.0480 C.3       1 <0>         0.1246
     20 C20         5.1372    3.5153   -2.8394 C.3       1 <0>         0.0606
     21 C21         3.6721    4.5042    4.2884 C.3       1 <0>         0.1012
     22 C22         7.2891    2.5653   -5.8869 C.3       1 <0>         0.1554
     23 C23         8.4675    3.2247   -6.6121 C.3       1 <0>        -0.0356
     24 C24         8.0800    4.9598    0.7851 C.3       1 <0>        -0.0795
     25 C25         8.7880    6.0338    1.6192 C.3       1 <0>        -0.1203
     26 C26         6.9719    4.2276    1.5544 C.3       1 <0>        -0.0920
     27 C27         9.9095    6.7454    0.8629 C.3       1 <0>         0.1502
     28 C28         6.2906    3.1130    0.7514 C.3       1 <0>         0.0224
     29 N1          5.7488    2.9259   -4.0152 N.am      1 <0>        -0.3553
     30 N2          4.9069    2.0073   -4.6693 N.3       1 <0>        -0.4320
     31 N3          7.6768    1.1953   -5.5201 N.3       1 <0>        -0.9031
     32 N4         10.5470    7.7366    1.7233 N.3       1 <0>        -0.9068
     33 N5          4.0751    3.8723    3.0302 N.am      1 <0>        -0.5526
     34 N6          5.7762    3.5917   -0.5046 N.am      1 <0>        -0.5576
     35 O1          7.7474    4.0812   -4.0464 O.2       1 <0>        -0.6710
     36 O2          4.5176    1.4899    1.1258 O.2       1 <0>        -0.4901
     37 O3          5.5575    2.2579    3.8741 O.2       1 <0>        -0.5902
     38 O4          6.0670    1.6440   -1.7490 O.2       1 <0>        -0.5833
     39 H1          9.5646    0.7147  -11.2275 H         1 <0>         0.1320
     40 H2         10.6743   -0.0064   -9.1292 H         1 <0>         0.1324
     41 H3          7.9478    2.5960  -11.1926 H         1 <0>         0.1328
     42 H4         10.1723    1.1467   -7.0000 H         1 <0>         0.1324
     43 H5          7.4388    3.7559   -9.0687 H         1 <0>         0.1434
     44 H6          2.7622    7.7634    4.5770 H         1 <0>         0.0405
     45 H7          2.9843    8.1431    2.8715 H         1 <0>         0.0421
     46 H8          4.8498    6.5672    2.6931 H         1 <0>         0.0362
     47 H9          5.1451    7.6594    4.0414 H         1 <0>         0.0439
     48 H10         1.0626    6.5878    3.2707 H         1 <0>         0.0350
     49 H11         2.2823    5.8929    2.2088 H         1 <0>         0.0428
     50 H12         5.6681    5.2911    4.6230 H         1 <0>         0.0663
     51 H13         4.4267    5.9838    5.6638 H         1 <0>         0.0466
     52 H14         1.8872    5.3174    5.1851 H         1 <0>         0.0493
     53 H15         1.5655    4.2145    3.8493 H         1 <0>         0.0520
     54 H16         3.1996    4.0578   -3.5869 H         1 <0>         0.0915
     55 H17         3.1150    3.0948   -2.0945 H         1 <0>         0.0601
     56 H18         6.1186    1.7328   -7.5220 H         1 <0>         0.0688
     57 H19         6.0134    3.4760   -7.3953 H         1 <0>         0.0630
     58 H20         3.6705    1.0888   -3.2538 H         1 <0>         0.0807
     59 H21         2.7495    1.9066   -4.5175 H         1 <0>         0.0380
     60 H22         4.1937    3.4213   -6.0771 H         1 <0>         0.0484
     61 H23         4.0529    1.7380   -6.5798 H         1 <0>         0.0697
     62 H24         5.3721    4.5807   -2.7630 H         1 <0>         0.0843
     63 H25         3.7338    3.7211    5.0512 H         1 <0>         0.0831
     64 H26         9.3395    3.2124   -5.9558 H         1 <0>         0.0704
     65 H27         8.2279    4.2735   -6.7972 H         1 <0>         0.0718
     66 H28         7.6494    5.4516   -0.0948 H         1 <0>         0.0606
     67 H29         8.8216    4.2418    0.4157 H         1 <0>         0.0458
     68 H30         8.0356    6.7709    1.9287 H         1 <0>         0.0375
     69 H31         9.1825    5.5824    2.5383 H         1 <0>         0.0392
     70 H32         6.2171    4.9575    1.8728 H         1 <0>         0.0606
     71 H33         7.3929    3.7874    2.4660 H         1 <0>         0.0579
     72 H34         9.5108    7.2416   -0.0285 H         1 <0>         0.0571
     73 H35        10.6706    6.0303    0.5375 H         1 <0>         0.0503
     74 H36         7.0421    2.3587    0.4881 H         1 <0>         0.0993
     75 H37         6.9507    0.5323   -5.3773 H         1 <0>         0.3700
     76 H38         8.6161    1.0420   -5.2343 H         1 <0>         0.3660
     77 H39        11.2163    8.3531    1.3147 H         1 <0>         0.3465
     78 H40        10.4498    7.6340    2.7108 H         1 <0>         0.3446
     79 H41         3.6782    4.2214    2.1629 H         1 <0>         0.3148
     80 H42         5.4441    4.5531   -0.5557 H         1 <0>         0.3220
@<TRIPOS>BOND
     1    1    2 ar
     2    1    3 ar
     3    2    4 ar
     4    3    5 ar
     5    4    6 ar
     6    5    6 ar
     7    6   23 1
     8    7   22 1
     9    7   29 am
    10    7   35 2
    11    8    9 1
    12    8   28 1
    13    8   36 2
    14    9   33 am
    15    9   37 2
    16   10   20 1
    17   10   34 am
    18   10   38 2
    19   11   12 1
    20   11   13 1
    21   12   14 1
    22   13   15 1
    23   14   21 1
    24   15   21 1
    25   16   18 1
    26   16   20 1
    27   17   19 1
    28   17   22 1
    29   18   30 1
    30   19   30 1
    31   20   29 1
    32   21   33 1
    33   22   23 1
    34   22   31 1
    35   24   25 1
    36   24   26 1
    37   25   27 1
    38   26   28 1
    39   27   32 1
    40   28   34 1
    41   29   30 1
    42    1   39 1
    43    2   40 1
    44    3   41 1
    45    4   42 1
    46    5   43 1
    47   11   44 1
    48   11   45 1
    49   12   46 1
    50   12   47 1
    51   13   48 1
    52   13   49 1
    53   14   50 1
    54   14   51 1
    55   15   52 1
    56   15   53 1
    57   16   54 1
    58   16   55 1
    59   17   56 1
    60   17   57 1
    61   18   58 1
    62   18   59 1
    63   19   60 1
    64   19   61 1
    65   20   62 1
    66   21   63 1
    67   23   64 1
    68   23   65 1
    69   24   66 1
    70   24   67 1
    71   25   68 1
    72   25   69 1
    73   26   70 1
    74   26   71 1
    75   27   72 1
    76   27   73 1
    77   28   74 1
    78   31   75 1
    79   31   76 1
    80   32   77 1
    81   32   78 1
    82   33   79 1
    83   34   80 1
@<TRIPOS>MOLECULE
1a46_ligand_154
   80    83     0     0     0
SMALL
USER_CHARGES

mmff94s_NoEstat = 84.21
@<TRIPOS>ATOM
      1 C1          5.4266   13.4365   -3.4169 C.ar      1 <0>        -0.1300
      2 C2          5.8751   12.9626   -2.1841 C.ar      1 <0>        -0.1323
      3 C3          4.6702   12.6105   -4.2484 C.ar      1 <0>        -0.1309
      4 C4          5.5674   11.6626   -1.7828 C.ar      1 <0>        -0.1275
      5 C5          4.3625   11.3105   -3.8471 C.ar      1 <0>        -0.1272
      6 C6          4.8131   10.8451   -2.6169 C.ar      1 <0>        -0.0843
      7 C7          5.2227    7.0215   -2.2038 C.2       1 <0>         0.6709
      8 C8          5.2358    2.3798    1.5634 C.2       1 <0>         0.4867
      9 C9          5.6457    1.7076    2.8411 C.2       1 <0>         0.5883
     10 C10         6.5648    4.1956   -1.4701 C.2       1 <0>         0.6572
     11 C11         5.3193   -3.2170    3.0395 C.3       1 <0>        -0.0802
     12 C12         4.3631   -2.1344    3.5332 C.3       1 <0>        -0.0765
     13 C13         6.5499   -2.6230    2.3593 C.3       1 <0>        -0.0774
     14 C14         5.0748   -1.1219    4.4314 C.3       1 <0>        -0.0953
     15 C15         7.2567   -1.6095    3.2605 C.3       1 <0>        -0.0906
     16 C16         6.4370    4.0713   -3.9709 C.3       1 <0>        -0.0871
     17 C17         5.7185    8.5126   -4.1803 C.3       1 <0>        -0.0716
     18 C18         7.4589    5.1398   -4.3541 C.3       1 <0>         0.1333
     19 C19         6.3195    7.2447   -4.8112 C.3       1 <0>         0.1246
     20 C20         5.8189    4.6139   -2.6998 C.3       1 <0>         0.0606
     21 C21         6.3167   -0.5090    3.7703 C.3       1 <0>         0.1012
     22 C22         5.5566    8.4542   -2.6431 C.3       1 <0>         0.1554
     23 C23         4.4821    9.4467   -2.1852 C.3       1 <0>        -0.0356
     24 C24         6.0158    5.3379    2.0114 C.3       1 <0>        -0.0795
     25 C25         6.7209    6.4716    2.7653 C.3       1 <0>        -0.1203
     26 C26         6.9719    4.2276    1.5544 C.3       1 <0>        -0.0920
     27 C27         5.7742    7.5909    3.1979 C.3       1 <0>         0.1502
     28 C28         6.2906    3.1130    0.7514 C.3       1 <0>         0.0224
     29 N1          5.9858    6.0487   -2.8308 N.am      1 <0>        -0.3553
     30 N2          6.9481    6.4032   -3.7946 N.3       1 <0>        -0.4320
     31 N3          6.8203    8.7957   -1.9738 N.3       1 <0>        -0.9031
     32 N4          6.5168    8.6391    3.8900 N.3       1 <0>        -0.9068
     33 N5          5.9220    0.3713    2.6684 N.am      1 <0>        -0.5526
     34 N6          5.7762    3.5917   -0.5046 N.am      1 <0>        -0.5576
     35 O1          4.3619    6.7750   -1.3592 O.2       1 <0>        -0.6710
     36 O2          4.0412    2.3628    1.2952 O.2       1 <0>        -0.4901
     37 O3          5.6695    2.3799    3.8590 O.2       1 <0>        -0.5902
     38 O4          7.7705    4.4014   -1.3956 O.2       1 <0>        -0.5833
     39 H1          5.6663   14.4486   -3.7294 H         1 <0>         0.1320
     40 H2          6.4640   13.6058   -1.5368 H         1 <0>         0.1324
     41 H3          4.3212   12.9796   -5.2084 H         1 <0>         0.1328
     42 H4          5.9211   11.3020   -0.8206 H         1 <0>         0.1324
     43 H5          3.7727   10.6741   -4.5015 H         1 <0>         0.1434
     44 H6          5.6373   -3.8343    3.8888 H         1 <0>         0.0405
     45 H7          4.7964   -3.8809    2.3418 H         1 <0>         0.0421
     46 H8          3.9186   -1.6193    2.6731 H         1 <0>         0.0362
     47 H9          3.5377   -2.5979    4.0857 H         1 <0>         0.0439
     48 H10         7.2466   -3.4264    2.0941 H         1 <0>         0.0350
     49 H11         6.2514   -2.1401    1.4210 H         1 <0>         0.0428
     50 H12         4.3686   -0.3314    4.7131 H         1 <0>         0.0663
     51 H13         5.3771   -1.6234    5.3596 H         1 <0>         0.0466
     52 H14         7.6844   -2.1391    4.1214 H         1 <0>         0.0493
     53 H15         8.0959   -1.1645    2.7124 H         1 <0>         0.0520
     54 H16         5.6709    4.0073   -4.7535 H         1 <0>         0.0915
     55 H17         6.8936    3.0840   -3.8511 H         1 <0>         0.0601
     56 H18         6.3330    9.3815   -4.4524 H         1 <0>         0.0688
     57 H19         4.7383    8.6848   -4.6454 H         1 <0>         0.0630
     58 H20         8.4170    4.9158   -3.8698 H         1 <0>         0.0807
     59 H21         7.6408    5.1703   -5.4340 H         1 <0>         0.0380
     60 H22         5.5257    6.6966   -5.3375 H         1 <0>         0.0484
     61 H23         7.0554    7.5409   -5.5683 H         1 <0>         0.0697
     62 H24         4.7652    4.3476   -2.5772 H         1 <0>         0.0843
     63 H25         6.8444    0.1271    4.4887 H         1 <0>         0.0831
     64 H26         4.3919    9.3954   -1.0986 H         1 <0>         0.0704
     65 H27         3.5182    9.1401   -2.5956 H         1 <0>         0.0718
     66 H28         5.2579    4.9142    2.6804 H         1 <0>         0.0606
     67 H29         5.4809    5.7546    1.1500 H         1 <0>         0.0458
     68 H30         7.2000    6.0392    3.6534 H         1 <0>         0.0375
     69 H31         7.5258    6.8807    2.1417 H         1 <0>         0.0392
     70 H32         7.4599    3.7926    2.4354 H         1 <0>         0.0606
     71 H33         7.7645    4.6634    0.9347 H         1 <0>         0.0579
     72 H34         4.9986    7.1962    3.8630 H         1 <0>         0.0571
     73 H35         5.2784    8.0349    2.3297 H         1 <0>         0.0503
     74 H36         7.0421    2.3587    0.4881 H         1 <0>         0.0993
     75 H37         7.6658    8.5036   -2.4065 H         1 <0>         0.3700
     76 H38         6.7736    9.1160   -1.0343 H         1 <0>         0.3660
     77 H39         5.9996    9.3711    4.3277 H         1 <0>         0.3465
     78 H40         7.4997    8.7018    3.7315 H         1 <0>         0.3446
     79 H41         5.8492   -0.0226    1.7351 H         1 <0>         0.3148
     80 H42         4.7816    3.4809   -0.6931 H         1 <0>         0.3220
@<TRIPOS>BOND
     1    1    2 ar
     2    1    3 ar
     3    2    4 ar
     4    3    5 ar
     5    4    6 ar
     6    5    6 ar
     7    6   23 1
     8    7   22 1
     9    7   29 am
    10    7   35 2
    11    8    9 1
    12    8   28 1
    13    8   36 2
    14    9   33 am
    15    9   37 2
    16   10   20 1
    17   10   34 am
    18   10   38 2
    19   11   12 1
    20   11   13 1
    21   12   14 1
    22   13   15 1
    23   14   21 1
    24   15   21 1
    25   16   18 1
    26   16   20 1
    27   17   19 1
    28   17   22 1
    29   18   30 1
    30   19   30 1
    31   20   29 1
    32   21   33 1
    33   22   23 1
    34   22   31 1
    35   24   25 1
    36   24   26 1
    37   25   27 1
    38   26   28 1
    39   27   32 1
    40   28   34 1
    41   29   30 1
    42    1   39 1
    43    2   40 1
    44    3   41 1
    45    4   42 1
    46    5   43 1
    47   11   44 1
    48   11   45 1
    49   12   46 1
    50   12   47 1
    51   13   48 1
    52   13   49 1
    53   14   50 1
    54   14   51 1
    55   15   52 1
    56   15   53 1
    57   16   54 1
    58   16   55 1
    59   17   56 1
    60   17   57 1
    61   18   58 1
    62   18   59 1
    63   19   60 1
    64   19   61 1
    65   20   62 1
    66   21   63 1
    67   23   64 1
    68   23   65 1
    69   24   66 1
    70   24   67 1
    71   25   68 1
    72   25   69 1
    73   26   70 1
    74   26   71 1
    75   27   72 1
    76   27   73 1
    77   28   74 1
    78   31   75 1
    79   31   76 1
    80   32   77 1
    81   32   78 1
    82   33   79 1
    83   34   80 1
@<TRIPOS>MOLECULE
1a46_ligand_155
   80    83     0     0     0
SMALL
USER_CHARGES

mmff94s_NoEstat = 84.28
@<TRIPOS>ATOM
      1 C1         11.0121    9.2104   -7.9325 C.ar      1 <0>        -0.1300
      2 C2         11.5385    8.8832   -6.6829 C.ar      1 <0>        -0.1323
      3 C3          9.6345    9.1559   -8.1449 C.ar      1 <0>        -0.1309
      4 C4         10.6874    8.5015   -5.6458 C.ar      1 <0>        -0.1275
      5 C5          8.7834    8.7742   -7.1078 C.ar      1 <0>        -0.1272
      6 C6          9.3154    8.4495   -5.8650 C.ar      1 <0>        -0.0843
      7 C7          7.2411    6.0968   -3.6024 C.2       1 <0>         0.6709
      8 C8          5.2358    2.3798    1.5634 C.2       1 <0>         0.4867
      9 C9          3.8230    2.3549    1.0577 C.2       1 <0>         0.5883
     10 C10         6.5256    3.6321   -1.6689 C.2       1 <0>         0.6572
     11 C11         2.4143   -1.5646   -1.5974 C.3       1 <0>        -0.0802
     12 C12         2.8933   -0.1836   -2.0369 C.3       1 <0>        -0.0765
     13 C13         2.4139   -1.7105   -0.0780 C.3       1 <0>        -0.0774
     14 C14         2.0944    0.9309   -1.3599 C.3       1 <0>        -0.0953
     15 C15         1.6157   -0.5926    0.5943 C.3       1 <0>        -0.0906
     16 C16         5.2113    3.0694   -3.7284 C.3       1 <0>        -0.0871
     17 C17         7.6012    6.0599   -6.1012 C.3       1 <0>        -0.0716
     18 C18         6.3446    2.7580   -4.7039 C.3       1 <0>         0.1333
     19 C19         6.8355    4.7264   -6.0536 C.3       1 <0>         0.1246
     20 C20         5.7868    4.1659   -2.8575 C.3       1 <0>         0.0606
     21 C21         2.0784    0.8075    0.1696 C.3       1 <0>         0.1012
     22 C22         8.1773    6.5224   -4.7422 C.3       1 <0>         0.1554
     23 C23         8.4000    8.0389   -4.7494 C.3       1 <0>        -0.0356
     24 C24         7.6485    3.7409    2.8432 C.3       1 <0>        -0.0795
     25 C25         8.2774    4.8743    3.6620 C.3       1 <0>        -0.1203
     26 C26         6.9719    4.2276    1.5544 C.3       1 <0>        -0.0920
     27 C27         8.9284    4.3945    4.9589 C.3       1 <0>         0.1502
     28 C28         6.2906    3.1130    0.7514 C.3       1 <0>         0.0224
     29 N1          6.7674    4.7991   -3.7183 N.am      1 <0>        -0.3553
     30 N2          7.1280    4.0001   -4.8193 N.3       1 <0>        -0.4320
     31 N3          9.4643    5.8648   -4.4722 N.3       1 <0>        -0.9031
     32 N4          9.4866    5.5266    5.6910 N.3       1 <0>        -0.9068
     33 N5          3.4082    1.0891    0.7148 N.am      1 <0>        -0.5526
     34 N6          5.7762    3.5917   -0.5046 N.am      1 <0>        -0.5576
     35 O1          6.9567    6.8465   -2.6685 O.2       1 <0>        -0.6710
     36 O2          5.4669    1.7271    2.5732 O.2       1 <0>        -0.4901
     37 O3          3.2225    3.4147    0.9857 O.2       1 <0>        -0.5902
     38 O4          7.6924    3.2783   -1.7917 O.2       1 <0>        -0.5833
     39 H1         11.6747    9.5075   -8.7400 H         1 <0>         0.1320
     40 H2         12.6111    8.9257   -6.5176 H         1 <0>         0.1324
     41 H3          9.2248    9.4105   -9.1180 H         1 <0>         0.1328
     42 H4         11.1066    8.2484   -4.6756 H         1 <0>         0.1324
     43 H5          7.7115    8.7346   -7.2826 H         1 <0>         0.1434
     44 H6          1.3994   -1.7342   -1.9780 H         1 <0>         0.0405
     45 H7          3.0537   -2.3357   -2.0419 H         1 <0>         0.0421
     46 H8          3.9583   -0.0733   -1.7996 H         1 <0>         0.0362
     47 H9          2.8005   -0.0920   -3.1252 H         1 <0>         0.0439
     48 H10         1.9878   -2.6820    0.1975 H         1 <0>         0.0350
     49 H11         3.4468   -1.7019    0.2903 H         1 <0>         0.0428
     50 H12         2.5094    1.9021   -1.6556 H         1 <0>         0.0663
     51 H13         1.0616    0.9008   -1.7299 H         1 <0>         0.0466
     52 H14         0.5554   -0.7103    0.3367 H         1 <0>         0.0493
     53 H15         1.6920   -0.7007    1.6831 H         1 <0>         0.0520
     54 H16         4.3507    3.4578   -4.2870 H         1 <0>         0.0915
     55 H17         4.8908    2.1856   -3.1683 H         1 <0>         0.0601
     56 H18         8.4120    5.9885   -6.8390 H         1 <0>         0.0688
     57 H19         6.9149    6.8257   -6.4876 H         1 <0>         0.0630
     58 H20         6.9926    1.9855   -4.2725 H         1 <0>         0.0807
     59 H21         5.9735    2.3729   -5.6602 H         1 <0>         0.0380
     60 H22         5.7592    4.9288   -6.1435 H         1 <0>         0.0484
     61 H23         7.1185    4.1245   -6.9255 H         1 <0>         0.0697
     62 H24         5.0406    4.8864   -2.5107 H         1 <0>         0.0843
     63 H25         1.4122    1.5645    0.5965 H         1 <0>         0.0831
     64 H26         8.8151    8.3408   -3.7861 H         1 <0>         0.0704
     65 H27         7.4343    8.5386   -4.8464 H         1 <0>         0.0718
     66 H28         8.4445    3.0306    2.5915 H         1 <0>         0.0606
     67 H29         6.9275    3.2007    3.4679 H         1 <0>         0.0458
     68 H30         9.0354    5.3625    3.0356 H         1 <0>         0.0375
     69 H31         7.5157    5.6329    3.8824 H         1 <0>         0.0392
     70 H32         7.7210    4.7221    0.9235 H         1 <0>         0.0606
     71 H33         6.2174    4.9831    1.8035 H         1 <0>         0.0579
     72 H34         9.7251    3.6753    4.7403 H         1 <0>         0.0571
     73 H35         8.1937    3.8977    5.5994 H         1 <0>         0.0503
     74 H36         7.0421    2.3587    0.4881 H         1 <0>         0.0993
     75 H37         9.5764    4.9261   -4.7778 H         1 <0>         0.3700
     76 H38        10.0811    6.3037   -3.8286 H         1 <0>         0.3660
     77 H39        10.0430    5.3371    6.4969 H         1 <0>         0.3465
     78 H40         9.1331    6.4373    5.4892 H         1 <0>         0.3446
     79 H41         4.0528    0.3153    0.8455 H         1 <0>         0.3148
     80 H42         4.8120    3.9176   -0.5391 H         1 <0>         0.3220
@<TRIPOS>BOND
     1    1    2 ar
     2    1    3 ar
     3    2    4 ar
     4    3    5 ar
     5    4    6 ar
     6    5    6 ar
     7    6   23 1
     8    7   22 1
     9    7   29 am
    10    7   35 2
    11    8    9 1
    12    8   28 1
    13    8   36 2
    14    9   33 am
    15    9   37 2
    16   10   20 1
    17   10   34 am
    18   10   38 2
    19   11   12 1
    20   11   13 1
    21   12   14 1
    22   13   15 1
    23   14   21 1
    24   15   21 1
    25   16   18 1
    26   16   20 1
    27   17   19 1
    28   17   22 1
    29   18   30 1
    30   19   30 1
    31   20   29 1
    32   21   33 1
    33   22   23 1
    34   22   31 1
    35   24   25 1
    36   24   26 1
    37   25   27 1
    38   26   28 1
    39   27   32 1
    40   28   34 1
    41   29   30 1
    42    1   39 1
    43    2   40 1
    44    3   41 1
    45    4   42 1
    46    5   43 1
    47   11   44 1
    48   11   45 1
    49   12   46 1
    50   12   47 1
    51   13   48 1
    52   13   49 1
    53   14   50 1
    54   14   51 1
    55   15   52 1
    56   15   53 1
    57   16   54 1
    58   16   55 1
    59   17   56 1
    60   17   57 1
    61   18   58 1
    62   18   59 1
    63   19   60 1
    64   19   61 1
    65   20   62 1
    66   21   63 1
    67   23   64 1
    68   23   65 1
    69   24   66 1
    70   24   67 1
    71   25   68 1
    72   25   69 1
    73   26   70 1
    74   26   71 1
    75   27   72 1
    76   27   73 1
    77   28   74 1
    78   31   75 1
    79   31   76 1
    80   32   77 1
    81   32   78 1
    82   33   79 1
    83   34   80 1
@<TRIPOS>MOLECULE
1a46_ligand_156
   80    83     0     0     0
SMALL
USER_CHARGES

mmff94s_NoEstat = 84.31
@<TRIPOS>ATOM
      1 C1         11.0121    9.2104   -7.9325 C.ar      1 <0>        -0.1300
      2 C2         11.5385    8.8832   -6.6829 C.ar      1 <0>        -0.1323
      3 C3          9.6345    9.1559   -8.1449 C.ar      1 <0>        -0.1309
      4 C4         10.6874    8.5015   -5.6458 C.ar      1 <0>        -0.1275
      5 C5          8.7834    8.7742   -7.1078 C.ar      1 <0>        -0.1272
      6 C6          9.3154    8.4495   -5.8650 C.ar      1 <0>        -0.0843
      7 C7          7.2411    6.0968   -3.6024 C.2       1 <0>         0.6709
      8 C8          5.2358    2.3798    1.5634 C.2       1 <0>         0.4867
      9 C9          3.8230    2.3549    1.0577 C.2       1 <0>         0.5883
     10 C10         6.5256    3.6321   -1.6689 C.2       1 <0>         0.6572
     11 C11         0.3896    4.6662    3.7535 C.3       1 <0>        -0.0802
     12 C12         0.7833    3.1927    3.6928 C.3       1 <0>        -0.0765
     13 C13         1.2470    5.5235    2.8264 C.3       1 <0>        -0.0774
     14 C14         0.7693    2.6651    2.2575 C.3       1 <0>        -0.0953
     15 C15         1.2316    4.9906    1.3930 C.3       1 <0>        -0.0906
     16 C16         5.2113    3.0694   -3.7284 C.3       1 <0>        -0.0871
     17 C17         7.6012    6.0599   -6.1012 C.3       1 <0>        -0.0716
     18 C18         6.3446    2.7580   -4.7039 C.3       1 <0>         0.1333
     19 C19         6.8355    4.7264   -6.0536 C.3       1 <0>         0.1246
     20 C20         5.7868    4.1659   -2.8575 C.3       1 <0>         0.0606
     21 C21         1.6248    3.5100    1.3041 C.3       1 <0>         0.1012
     22 C22         8.1773    6.5224   -4.7422 C.3       1 <0>         0.1554
     23 C23         8.4000    8.0389   -4.7494 C.3       1 <0>        -0.0356
     24 C24         7.6485    3.7409    2.8432 C.3       1 <0>        -0.0795
     25 C25         8.2774    4.8743    3.6620 C.3       1 <0>        -0.1203
     26 C26         6.9719    4.2276    1.5544 C.3       1 <0>        -0.0920
     27 C27         8.9284    4.3945    4.9589 C.3       1 <0>         0.1502
     28 C28         6.2906    3.1130    0.7514 C.3       1 <0>         0.0224
     29 N1          6.7674    4.7991   -3.7183 N.am      1 <0>        -0.3553
     30 N2          7.1280    4.0001   -4.8193 N.3       1 <0>        -0.4320
     31 N3          9.4643    5.8648   -4.4722 N.3       1 <0>        -0.9031
     32 N4          9.4866    5.5266    5.6910 N.3       1 <0>        -0.9068
     33 N5          3.0460    3.3433    1.6158 N.am      1 <0>        -0.5526
     34 N6          5.7762    3.5917   -0.5046 N.am      1 <0>        -0.5576
     35 O1          6.9567    6.8465   -2.6685 O.2       1 <0>        -0.6710
     36 O2          5.4669    1.7271    2.5732 O.2       1 <0>        -0.4901
     37 O3          3.5174    1.4867    0.2568 O.2       1 <0>        -0.5902
     38 O4          7.6924    3.2783   -1.7917 O.2       1 <0>        -0.5833
     39 H1         11.6747    9.5075   -8.7400 H         1 <0>         0.1320
     40 H2         12.6111    8.9257   -6.5176 H         1 <0>         0.1324
     41 H3          9.2248    9.4105   -9.1180 H         1 <0>         0.1328
     42 H4         11.1066    8.2484   -4.6756 H         1 <0>         0.1324
     43 H5          7.7115    8.7346   -7.2826 H         1 <0>         0.1434
     44 H6         -0.6654    4.7712    3.4715 H         1 <0>         0.0405
     45 H7          0.4815    5.0305    4.7829 H         1 <0>         0.0421
     46 H8          1.7825    3.0631    4.1260 H         1 <0>         0.0362
     47 H9          0.0932    2.6028    4.3070 H         1 <0>         0.0439
     48 H10         0.8803    6.5563    2.8376 H         1 <0>         0.0350
     49 H11         2.2773    5.5493    3.2014 H         1 <0>         0.0428
     50 H12         1.1154    1.6244    2.2530 H         1 <0>         0.0663
     51 H13        -0.2661    2.6571    1.8937 H         1 <0>         0.0466
     52 H14         0.2228    5.1163    0.9794 H         1 <0>         0.0493
     53 H15         1.9056    5.5973    0.7762 H         1 <0>         0.0520
     54 H16         4.3507    3.4578   -4.2870 H         1 <0>         0.0915
     55 H17         4.8908    2.1856   -3.1683 H         1 <0>         0.0601
     56 H18         8.4120    5.9885   -6.8390 H         1 <0>         0.0688
     57 H19         6.9149    6.8257   -6.4876 H         1 <0>         0.0630
     58 H20         6.9926    1.9855   -4.2725 H         1 <0>         0.0807
     59 H21         5.9735    2.3729   -5.6602 H         1 <0>         0.0380
     60 H22         5.7592    4.9288   -6.1435 H         1 <0>         0.0484
     61 H23         7.1185    4.1245   -6.9255 H         1 <0>         0.0697
     62 H24         5.0406    4.8864   -2.5107 H         1 <0>         0.0843
     63 H25         1.4987    3.1531    0.2766 H         1 <0>         0.0831
     64 H26         8.8151    8.3408   -3.7861 H         1 <0>         0.0704
     65 H27         7.4343    8.5386   -4.8464 H         1 <0>         0.0718
     66 H28         8.4445    3.0306    2.5915 H         1 <0>         0.0606
     67 H29         6.9275    3.2007    3.4679 H         1 <0>         0.0458
     68 H30         9.0354    5.3625    3.0356 H         1 <0>         0.0375
     69 H31         7.5157    5.6329    3.8824 H         1 <0>         0.0392
     70 H32         7.7210    4.7221    0.9235 H         1 <0>         0.0606
     71 H33         6.2174    4.9831    1.8035 H         1 <0>         0.0579
     72 H34         9.7251    3.6753    4.7403 H         1 <0>         0.0571
     73 H35         8.1937    3.8977    5.5994 H         1 <0>         0.0503
     74 H36         7.0421    2.3587    0.4881 H         1 <0>         0.0993
     75 H37         9.5764    4.9261   -4.7778 H         1 <0>         0.3700
     76 H38        10.0811    6.3037   -3.8286 H         1 <0>         0.3660
     77 H39        10.0430    5.3371    6.4969 H         1 <0>         0.3465
     78 H40         9.1331    6.4373    5.4892 H         1 <0>         0.3446
     79 H41         3.4772    3.9862    2.2733 H         1 <0>         0.3148
     80 H42         4.8120    3.9176   -0.5391 H         1 <0>         0.3220
@<TRIPOS>BOND
     1    1    2 ar
     2    1    3 ar
     3    2    4 ar
     4    3    5 ar
     5    4    6 ar
     6    5    6 ar
     7    6   23 1
     8    7   22 1
     9    7   29 am
    10    7   35 2
    11    8    9 1
    12    8   28 1
    13    8   36 2
    14    9   33 am
    15    9   37 2
    16   10   20 1
    17   10   34 am
    18   10   38 2
    19   11   12 1
    20   11   13 1
    21   12   14 1
    22   13   15 1
    23   14   21 1
    24   15   21 1
    25   16   18 1
    26   16   20 1
    27   17   19 1
    28   17   22 1
    29   18   30 1
    30   19   30 1
    31   20   29 1
    32   21   33 1
    33   22   23 1
    34   22   31 1
    35   24   25 1
    36   24   26 1
    37   25   27 1
    38   26   28 1
    39   27   32 1
    40   28   34 1
    41   29   30 1
    42    1   39 1
    43    2   40 1
    44    3   41 1
    45    4   42 1
    46    5   43 1
    47   11   44 1
    48   11   45 1
    49   12   46 1
    50   12   47 1
    51   13   48 1
    52   13   49 1
    53   14   50 1
    54   14   51 1
    55   15   52 1
    56   15   53 1
    57   16   54 1
    58   16   55 1
    59   17   56 1
    60   17   57 1
    61   18   58 1
    62   18   59 1
    63   19   60 1
    64   19   61 1
    65   20   62 1
    66   21   63 1
    67   23   64 1
    68   23   65 1
    69   24   66 1
    70   24   67 1
    71   25   68 1
    72   25   69 1
    73   26   70 1
    74   26   71 1
    75   27   72 1
    76   27   73 1
    77   28   74 1
    78   31   75 1
    79   31   76 1
    80   32   77 1
    81   32   78 1
    82   33   79 1
    83   34   80 1
@<TRIPOS>MOLECULE
1a46_ligand_157
   80    83     0     0     0
SMALL
USER_CHARGES

mmff94s_NoEstat = 84.32
@<TRIPOS>ATOM
      1 C1          9.0003   12.0144   -5.4225 C.ar      1 <0>        -0.1300
      2 C2          9.4537   11.5665   -4.1818 C.ar      1 <0>        -0.1323
      3 C3          7.8120   11.5127   -5.9535 C.ar      1 <0>        -0.1309
      4 C4          8.7189   10.6167   -3.4722 C.ar      1 <0>        -0.1275
      5 C5          7.0772   10.5629   -5.2439 C.ar      1 <0>        -0.1272
      6 C6          7.5355   10.1211   -4.0078 C.ar      1 <0>        -0.0843
      7 C7          6.3757    6.6257   -2.8269 C.2       1 <0>         0.6709
      8 C8          5.2358    2.3798    1.5634 C.2       1 <0>         0.4867
      9 C9          3.8230    2.3549    1.0577 C.2       1 <0>         0.5883
     10 C10         6.5256    3.6321   -1.6689 C.2       1 <0>         0.6572
     11 C11         2.7693   -0.5227   -2.8160 C.3       1 <0>        -0.0802
     12 C12         3.4505    0.8134   -3.1004 C.3       1 <0>        -0.0765
     13 C13         2.5514   -0.7442   -1.3217 C.3       1 <0>        -0.0774
     14 C14         2.6956    1.9779   -2.4581 C.3       1 <0>        -0.0953
     15 C15         1.7982    0.4239   -0.6836 C.3       1 <0>        -0.0906
     16 C16         5.8400    3.2307   -4.0468 C.3       1 <0>        -0.0871
     17 C17         7.0291    7.4385   -5.1265 C.3       1 <0>        -0.0716
     18 C18         7.1120    3.6562   -4.7776 C.3       1 <0>         0.1333
     19 C19         6.8955    5.9616   -5.5361 C.3       1 <0>         0.1246
     20 C20         5.7868    4.1659   -2.8575 C.3       1 <0>         0.0606
     21 C21         2.4634    1.7800   -0.9542 C.3       1 <0>         0.1012
     22 C22         7.1815    7.6752   -3.6055 C.3       1 <0>         0.1554
     23 C23         6.7451    9.0995   -3.2444 C.3       1 <0>        -0.0356
     24 C24         6.0158    5.3379    2.0114 C.3       1 <0>        -0.0795
     25 C25         6.7209    6.4716    2.7653 C.3       1 <0>        -0.1203
     26 C26         6.9719    4.2276    1.5544 C.3       1 <0>        -0.0920
     27 C27         5.7742    7.5909    3.1979 C.3       1 <0>         0.1502
     28 C28         6.2906    3.1130    0.7514 C.3       1 <0>         0.0224
     29 N1          6.5101    5.3360   -3.3173 N.am      1 <0>        -0.3553
     30 N2          7.3084    5.0783   -4.4472 N.3       1 <0>        -0.4320
     31 N3          8.5804    7.4980   -3.1893 N.3       1 <0>        -0.9031
     32 N4          4.7531    7.0666    4.0988 N.3       1 <0>        -0.9068
     33 N5          3.7319    1.8762   -0.2285 N.am      1 <0>        -0.5526
     34 N6          5.7762    3.5917   -0.5046 N.am      1 <0>        -0.5576
     35 O1          5.6876    6.9159   -1.8485 O.2       1 <0>        -0.6710
     36 O2          5.4669    1.7271    2.5732 O.2       1 <0>        -0.4901
     37 O3          2.9433    2.7636    1.7980 O.2       1 <0>        -0.5902
     38 O4          7.6924    3.2783   -1.7917 O.2       1 <0>        -0.5833
     39 H1          9.5724   12.7539   -5.9752 H         1 <0>         0.1320
     40 H2         10.3789   11.9573   -3.7685 H         1 <0>         0.1324
     41 H3          7.4591   11.8615   -6.9197 H         1 <0>         0.1328
     42 H4          9.0800   10.2736   -2.5062 H         1 <0>         0.1324
     43 H5          6.1526   10.1776   -5.6655 H         1 <0>         0.1434
     44 H6          1.8015   -0.5529   -3.3318 H         1 <0>         0.0405
     45 H7          3.3738   -1.3397   -3.2259 H         1 <0>         0.0421
     46 H8          4.4803    0.7862   -2.7241 H         1 <0>         0.0362
     47 H9          3.5135    0.9701   -4.1834 H         1 <0>         0.0439
     48 H10         1.9889   -1.6719   -1.1661 H         1 <0>         0.0350
     49 H11         3.5211   -0.8751   -0.8263 H         1 <0>         0.0428
     50 H12         3.2498    2.9077   -2.6351 H         1 <0>         0.0663
     51 H13         1.7240    2.0875   -2.9565 H         1 <0>         0.0466
     52 H14         0.7750    0.4441   -1.0800 H         1 <0>         0.0493
     53 H15         1.7170    0.2527    0.3966 H         1 <0>         0.0520
     54 H16         4.9736    3.4114   -4.6951 H         1 <0>         0.0915
     55 H17         5.8531    2.1713   -3.7729 H         1 <0>         0.0601
     56 H18         7.8805    7.8879   -5.6555 H         1 <0>         0.0688
     57 H19         6.1391    7.9685   -5.4921 H         1 <0>         0.0630
     58 H20         7.9647    3.0932   -4.3794 H         1 <0>         0.0807
     59 H21         7.0607    3.4497   -5.8523 H         1 <0>         0.0380
     60 H22         5.8545    5.7643   -5.8276 H         1 <0>         0.0484
     61 H23         7.5124    5.7838   -6.4252 H         1 <0>         0.0697
     62 H24         4.7698    4.4250   -2.5496 H         1 <0>         0.0843
     63 H25         1.8333    2.5871   -0.5661 H         1 <0>         0.0831
     64 H26         6.8700    9.2469   -2.1701 H         1 <0>         0.0704
     65 H27         5.6795    9.2080   -3.4549 H         1 <0>         0.0718
     66 H28         5.2579    4.9142    2.6804 H         1 <0>         0.0606
     67 H29         5.4809    5.7546    1.1500 H         1 <0>         0.0458
     68 H30         7.2000    6.0392    3.6534 H         1 <0>         0.0375
     69 H31         7.5258    6.8807    2.1417 H         1 <0>         0.0392
     70 H32         7.4599    3.7926    2.4354 H         1 <0>         0.0606
     71 H33         7.7645    4.6634    0.9347 H         1 <0>         0.0579
     72 H34         5.2908    8.0386    2.3228 H         1 <0>         0.0571
     73 H35         6.3225    8.3806    3.7198 H         1 <0>         0.0503
     74 H36         7.0421    2.3587    0.4881 H         1 <0>         0.0993
     75 H37         9.1142    6.7979   -3.6499 H         1 <0>         0.3700
     76 H38         8.8693    7.9327   -2.3437 H         1 <0>         0.3660
     77 H39         4.0028    7.6695    4.3608 H         1 <0>         0.3465
     78 H40         4.9421    6.2118    4.5770 H         1 <0>         0.3446
     79 H41         4.5822    1.5761   -0.6958 H         1 <0>         0.3148
     80 H42         4.8120    3.9176   -0.5391 H         1 <0>         0.3220
@<TRIPOS>BOND
     1    1    2 ar
     2    1    3 ar
     3    2    4 ar
     4    3    5 ar
     5    4    6 ar
     6    5    6 ar
     7    6   23 1
     8    7   22 1
     9    7   29 am
    10    7   35 2
    11    8    9 1
    12    8   28 1
    13    8   36 2
    14    9   33 am
    15    9   37 2
    16   10   20 1
    17   10   34 am
    18   10   38 2
    19   11   12 1
    20   11   13 1
    21   12   14 1
    22   13   15 1
    23   14   21 1
    24   15   21 1
    25   16   18 1
    26   16   20 1
    27   17   19 1
    28   17   22 1
    29   18   30 1
    30   19   30 1
    31   20   29 1
    32   21   33 1
    33   22   23 1
    34   22   31 1
    35   24   25 1
    36   24   26 1
    37   25   27 1
    38   26   28 1
    39   27   32 1
    40   28   34 1
    41   29   30 1
    42    1   39 1
    43    2   40 1
    44    3   41 1
    45    4   42 1
    46    5   43 1
    47   11   44 1
    48   11   45 1
    49   12   46 1
    50   12   47 1
    51   13   48 1
    52   13   49 1
    53   14   50 1
    54   14   51 1
    55   15   52 1
    56   15   53 1
    57   16   54 1
    58   16   55 1
    59   17   56 1
    60   17   57 1
    61   18   58 1
    62   18   59 1
    63   19   60 1
    64   19   61 1
    65   20   62 1
    66   21   63 1
    67   23   64 1
    68   23   65 1
    69   24   66 1
    70   24   67 1
    71   25   68 1
    72   25   69 1
    73   26   70 1
    74   26   71 1
    75   27   72 1
    76   27   73 1
    77   28   74 1
    78   31   75 1
    79   31   76 1
    80   32   77 1
    81   32   78 1
    82   33   79 1
    83   34   80 1
@<TRIPOS>MOLECULE
1a46_ligand_158
   80    83     0     0     0
SMALL
USER_CHARGES

mmff94s_NoEstat = 84.34
@<TRIPOS>ATOM
      1 C1         -7.7455    8.1925  -11.7378 C.ar      1 <0>        -0.1300
      2 C2         -6.4538    8.7176  -11.7053 C.ar      1 <0>        -0.1323
      3 C3         -8.1013    7.1613  -10.8684 C.ar      1 <0>        -0.1309
      4 C4         -5.5176    8.2116  -10.8036 C.ar      1 <0>        -0.1275
      5 C5         -7.1651    6.6552   -9.9666 C.ar      1 <0>        -0.1272
      6 C6         -5.8794    7.1836   -9.9401 C.ar      1 <0>        -0.0843
      7 C7         -3.0518    4.9149   -8.5929 C.2       1 <0>         0.6709
      8 C8          2.7796    3.2097   -6.1637 C.2       1 <0>         0.4867
      9 C9          4.2587    3.4565   -6.1009 C.2       1 <0>         0.5883
     10 C10        -0.2306    3.3845   -8.4382 C.2       1 <0>         0.6572
     11 C11         8.8637    2.5610   -8.7855 C.3       1 <0>        -0.0802
     12 C12         8.4502    1.4381   -7.8384 C.3       1 <0>        -0.0765
     13 C13         8.3345    3.9144   -8.3194 C.3       1 <0>        -0.0774
     14 C14         6.9373    1.4067   -7.6280 C.3       1 <0>        -0.0953
     15 C15         6.8214    3.8859   -8.1103 C.3       1 <0>        -0.0906
     16 C16        -1.8342    1.4799   -8.7324 C.3       1 <0>        -0.0871
     17 C17        -5.0487    4.3542  -10.0327 C.3       1 <0>        -0.0716
     18 C18        -2.3033    1.7312  -10.1641 C.3       1 <0>         0.1333
     19 C19        -4.4074    2.9598  -10.1390 C.3       1 <0>         0.1246
     20 C20        -1.6152    2.8736   -8.1831 C.3       1 <0>         0.0606
     21 C21         6.4119    2.7646   -7.1492 C.3       1 <0>         0.1012
     22 C22        -4.0838    5.4758   -9.5814 C.3       1 <0>         0.1554
     23 C23        -4.8724    6.6393   -8.9701 C.3       1 <0>        -0.0356
     24 C24         1.5857    6.0302   -6.5865 C.3       1 <0>        -0.0795
     25 C25         1.6811    7.5259   -6.9095 C.3       1 <0>        -0.1203
     26 C26         2.1570    5.1335   -7.6933 C.3       1 <0>        -0.0920
     27 C27         0.9506    7.9153   -8.1942 C.3       1 <0>         0.1502
     28 C28         2.0196    3.6328   -7.4097 C.3       1 <0>         0.0224
     29 N1         -2.5211    3.6904   -8.9681 N.am      1 <0>        -0.3553
     30 N2         -2.9489    3.0553  -10.1488 N.3       1 <0>        -0.4320
     31 N3         -3.3108    5.9870  -10.7228 N.3       1 <0>        -0.9031
     32 N4          1.1008    9.3448   -8.4455 N.3       1 <0>        -0.9068
     33 N5          4.9558    2.7197   -7.0299 N.am      1 <0>        -0.5526
     34 N6          0.6426    3.2153   -7.3763 N.am      1 <0>        -0.5576
     35 O1         -2.7244    5.5164   -7.5701 O.2       1 <0>        -0.6710
     36 O2          2.2586    2.7495   -5.1557 O.2       1 <0>        -0.4901
     37 O3          4.6736    4.2333   -5.2564 O.2       1 <0>        -0.5902
     38 O4          0.0350    3.8958   -9.5198 O.2       1 <0>        -0.5833
     39 H1         -8.4745    8.5865  -12.4399 H         1 <0>         0.1320
     40 H2         -6.1769    9.5206  -12.3823 H         1 <0>         0.1324
     41 H3         -9.1071    6.7523  -10.8939 H         1 <0>         0.1328
     42 H4         -4.5135    8.6269  -10.7854 H         1 <0>         0.1324
     43 H5         -7.4512    5.8517   -9.2932 H         1 <0>         0.1434
     44 H6          9.9564    2.5978   -8.8590 H         1 <0>         0.0405
     45 H7          8.4821    2.3476   -9.7916 H         1 <0>         0.0421
     46 H8          8.7864    0.4752   -8.2393 H         1 <0>         0.0362
     47 H9          8.9493    1.5736   -6.8710 H         1 <0>         0.0439
     48 H10         8.8268    4.1960   -7.3805 H         1 <0>         0.0350
     49 H11         8.5899    4.6836   -9.0571 H         1 <0>         0.0428
     50 H12         6.4445    1.1238   -8.5676 H         1 <0>         0.0663
     51 H13         6.6833    0.6284   -6.8982 H         1 <0>         0.0466
     52 H14         6.4858    4.8545   -7.7204 H         1 <0>         0.0493
     53 H15         6.3220    3.7511   -9.0789 H         1 <0>         0.0520
     54 H16        -2.6369    0.9859   -8.1710 H         1 <0>         0.0915
     55 H17        -0.9427    0.8466   -8.6926 H         1 <0>         0.0601
     56 H18        -5.4989    4.6229  -10.9981 H         1 <0>         0.0688
     57 H19        -5.8853    4.2840   -9.3243 H         1 <0>         0.0630
     58 H20        -1.4316    1.7851  -10.8273 H         1 <0>         0.0807
     59 H21        -2.9449    0.9252  -10.5369 H         1 <0>         0.0380
     60 H22        -4.7542    2.3419   -9.2992 H         1 <0>         0.0484
     61 H23        -4.7632    2.4757  -11.0564 H         1 <0>         0.0697
     62 H24        -1.8289    2.9613   -7.1141 H         1 <0>         0.0843
     63 H25         6.7961    2.9779   -6.1450 H         1 <0>         0.0831
     64 H26        -4.1735    7.4215   -8.6684 H         1 <0>         0.0704
     65 H27        -5.3683    6.2928   -8.0614 H         1 <0>         0.0718
     66 H28         2.1358    5.8550   -5.6547 H         1 <0>         0.0606
     67 H29         0.5392    5.7688   -6.3906 H         1 <0>         0.0458
     68 H30         1.2509    8.0813   -6.0658 H         1 <0>         0.0375
     69 H31         2.7364    7.8199   -6.9737 H         1 <0>         0.0392
     70 H32         3.2164    5.3787   -7.8393 H         1 <0>         0.0606
     71 H33         1.6466    5.3535   -8.6384 H         1 <0>         0.0579
     72 H34        -0.1142    7.6709   -8.1144 H         1 <0>         0.0571
     73 H35         1.3573    7.3696   -9.0507 H         1 <0>         0.0503
     74 H36         2.4714    3.0747   -8.2388 H         1 <0>         0.0993
     75 H37        -3.0417    5.3386  -11.4260 H         1 <0>         0.3700
     76 H38        -2.9200    6.8973  -10.6453 H         1 <0>         0.3660
     77 H39         0.5734    9.7495   -9.1891 H         1 <0>         0.3465
     78 H40         1.8624    9.8209   -8.0113 H         1 <0>         0.3446
     79 H41         4.4356    2.1176   -7.6610 H         1 <0>         0.3148
     80 H42         0.2924    2.7728   -6.5286 H         1 <0>         0.3220
@<TRIPOS>BOND
     1    1    2 ar
     2    1    3 ar
     3    2    4 ar
     4    3    5 ar
     5    4    6 ar
     6    5    6 ar
     7    6   23 1
     8    7   22 1
     9    7   29 am
    10    7   35 2
    11    8    9 1
    12    8   28 1
    13    8   36 2
    14    9   33 am
    15    9   37 2
    16   10   20 1
    17   10   34 am
    18   10   38 2
    19   11   12 1
    20   11   13 1
    21   12   14 1
    22   13   15 1
    23   14   21 1
    24   15   21 1
    25   16   18 1
    26   16   20 1
    27   17   19 1
    28   17   22 1
    29   18   30 1
    30   19   30 1
    31   20   29 1
    32   21   33 1
    33   22   23 1
    34   22   31 1
    35   24   25 1
    36   24   26 1
    37   25   27 1
    38   26   28 1
    39   27   32 1
    40   28   34 1
    41   29   30 1
    42    1   39 1
    43    2   40 1
    44    3   41 1
    45    4   42 1
    46    5   43 1
    47   11   44 1
    48   11   45 1
    49   12   46 1
    50   12   47 1
    51   13   48 1
    52   13   49 1
    53   14   50 1
    54   14   51 1
    55   15   52 1
    56   15   53 1
    57   16   54 1
    58   16   55 1
    59   17   56 1
    60   17   57 1
    61   18   58 1
    62   18   59 1
    63   19   60 1
    64   19   61 1
    65   20   62 1
    66   21   63 1
    67   23   64 1
    68   23   65 1
    69   24   66 1
    70   24   67 1
    71   25   68 1
    72   25   69 1
    73   26   70 1
    74   26   71 1
    75   27   72 1
    76   27   73 1
    77   28   74 1
    78   31   75 1
    79   31   76 1
    80   32   77 1
    81   32   78 1
    82   33   79 1
    83   34   80 1
@<TRIPOS>MOLECULE
1a46_ligand_159
   80    83     0     0     0
SMALL
USER_CHARGES

mmff94s_NoEstat = 84.35
@<TRIPOS>ATOM
      1 C1         -5.9518    1.0529  -15.7574 C.ar      1 <0>        -0.1300
      2 C2         -4.7078    1.6646  -15.9115 C.ar      1 <0>        -0.1323
      3 C3         -6.6077    1.1063  -14.5275 C.ar      1 <0>        -0.1309
      4 C4         -4.1196    2.3297  -14.8357 C.ar      1 <0>        -0.1275
      5 C5         -6.0195    1.7714  -13.4517 C.ar      1 <0>        -0.1272
      6 C6         -4.7793    2.3787  -13.6128 C.ar      1 <0>        -0.0843
      7 C7         -2.6173    2.8751  -10.4447 C.2       1 <0>         0.6709
      8 C8          2.7796    3.2097   -6.1637 C.2       1 <0>         0.4867
      9 C9          3.9990    3.9872   -5.7623 C.2       1 <0>         0.5883
     10 C10        -0.0591    2.8141   -8.5012 C.2       1 <0>         0.6572
     11 C11         8.7514    5.7578   -7.6316 C.3       1 <0>        -0.0802
     12 C12         8.7810    4.3461   -7.0528 C.3       1 <0>        -0.0765
     13 C13         7.6561    6.6061   -6.9916 C.3       1 <0>        -0.0774
     14 C14         7.4158    3.6675   -7.1522 C.3       1 <0>        -0.0953
     15 C15         6.2896    5.9304   -7.0917 C.3       1 <0>        -0.0906
     16 C16        -1.5879    1.1654   -7.3921 C.3       1 <0>        -0.0871
     17 C17        -4.1019    0.9486  -11.1228 C.3       1 <0>        -0.0716
     18 C18        -1.5823    0.0424   -8.4274 C.3       1 <0>         0.1333
     19 C19        -3.5290    0.2485   -9.8784 C.3       1 <0>         0.1246
     20 C20        -1.4789    2.4202   -8.2321 C.3       1 <0>         0.0606
     21 C21         6.3208    4.5176   -6.4984 C.3       1 <0>         0.1012
     22 C22        -3.2673    2.1480  -11.6303 C.3       1 <0>         0.1554
     23 C23        -4.1466    3.0941  -12.4556 C.3       1 <0>        -0.0356
     24 C24         1.5857    6.0302   -6.5865 C.3       1 <0>        -0.0795
     25 C25         1.6811    7.5259   -6.9095 C.3       1 <0>        -0.1203
     26 C26         2.1570    5.1335   -7.6933 C.3       1 <0>        -0.0920
     27 C27         1.0885    8.4192   -5.8200 C.3       1 <0>         0.1502
     28 C28         2.0196    3.6328   -7.4097 C.3       1 <0>         0.0224
     29 N1         -2.0587    2.0261   -9.5019 N.am      1 <0>        -0.3553
     30 N2         -2.1349    0.6298   -9.6602 N.3       1 <0>        -0.4320
     31 N3         -2.1572    1.6877  -12.4773 N.3       1 <0>        -0.9031
     32 N4          1.1980    9.8225   -6.2046 N.3       1 <0>        -0.9068
     33 N5          5.0202    3.8750   -6.6769 N.am      1 <0>        -0.5526
     34 N6          0.6426    3.2153   -7.3763 N.am      1 <0>        -0.5576
     35 O1         -2.5899    4.1027  -10.3594 O.2       1 <0>        -0.6710
     36 O2          2.4233    2.3196   -5.4021 O.2       1 <0>        -0.4901
     37 O3          3.9681    4.5934   -4.7038 O.2       1 <0>        -0.5902
     38 O4          0.3766    2.7593   -9.6452 O.2       1 <0>        -0.5833
     39 H1         -6.4098    0.5350  -16.5951 H         1 <0>         0.1320
     40 H2         -4.1972    1.6230  -16.8692 H         1 <0>         0.1324
     41 H3         -7.5763    0.6298  -14.4076 H         1 <0>         0.1328
     42 H4         -3.1501    2.8034  -14.9651 H         1 <0>         0.1324
     43 H5         -6.5379    1.8077  -12.4972 H         1 <0>         0.1434
     44 H6          9.7248    6.2383   -7.4816 H         1 <0>         0.0405
     45 H7          8.5844    5.7039   -8.7144 H         1 <0>         0.0421
     46 H8          9.5299    3.7463   -7.5821 H         1 <0>         0.0362
     47 H9          9.0904    4.3887   -6.0012 H         1 <0>         0.0439
     48 H10         7.8990    6.7820   -5.9365 H         1 <0>         0.0350
     49 H11         7.6183    7.5872   -7.4785 H         1 <0>         0.0428
     50 H12         7.1730    3.4905   -8.2083 H         1 <0>         0.0663
     51 H13         7.4595    2.6812   -6.6746 H         1 <0>         0.0466
     52 H14         5.5396    6.5385   -6.5714 H         1 <0>         0.0493
     53 H15         5.9798    5.8886   -8.1443 H         1 <0>         0.0520
     54 H16        -2.5475    1.1615   -6.8606 H         1 <0>         0.0915
     55 H17        -0.7842    1.0569   -6.6575 H         1 <0>         0.0601
     56 H18        -4.2204    0.2148  -11.9317 H         1 <0>         0.0688
     57 H19        -5.1178    1.2870  -10.8778 H         1 <0>         0.0630
     58 H20        -0.5477   -0.2605   -8.6286 H         1 <0>         0.0807
     59 H21        -2.1179   -0.8467   -8.0766 H         1 <0>         0.0380
     60 H22        -4.1468    0.5063   -9.0071 H         1 <0>         0.0484
     61 H23        -3.6100   -0.8367  -10.0142 H         1 <0>         0.0697
     62 H24        -2.0054    3.2790   -7.8063 H         1 <0>         0.0843
     63 H25         6.4904    4.5731   -5.4169 H         1 <0>         0.0831
     64 H26        -3.5359    3.9262  -12.8108 H         1 <0>         0.0704
     65 H27        -4.9137    3.5213  -11.8072 H         1 <0>         0.0718
     66 H28         2.1358    5.8550   -5.6547 H         1 <0>         0.0606
     67 H29         0.5392    5.7688   -6.3906 H         1 <0>         0.0458
     68 H30         2.7419    7.7748   -7.0444 H         1 <0>         0.0375
     69 H31         1.1870    7.7255   -7.8687 H         1 <0>         0.0392
     70 H32         3.2164    5.3787   -7.8393 H         1 <0>         0.0606
     71 H33         1.6466    5.3535   -8.6384 H         1 <0>         0.0579
     72 H34         1.6137    8.2608   -4.8719 H         1 <0>         0.0571
     73 H35         0.0315    8.1861   -5.6617 H         1 <0>         0.0503
     74 H36         2.4714    3.0747   -8.2388 H         1 <0>         0.0993
     75 H37        -1.7180    0.8294  -12.2371 H         1 <0>         0.3700
     76 H38        -1.7642    2.3382  -13.1175 H         1 <0>         0.3660
     77 H39         0.9557   10.5154   -5.5293 H         1 <0>         0.3465
     78 H40         1.3102   10.0373   -7.1723 H         1 <0>         0.3446
     79 H41         4.8635    3.3209   -7.5135 H         1 <0>         0.3148
     80 H42         0.1596    3.2148   -6.4798 H         1 <0>         0.3220
@<TRIPOS>BOND
     1    1    2 ar
     2    1    3 ar
     3    2    4 ar
     4    3    5 ar
     5    4    6 ar
     6    5    6 ar
     7    6   23 1
     8    7   22 1
     9    7   29 am
    10    7   35 2
    11    8    9 1
    12    8   28 1
    13    8   36 2
    14    9   33 am
    15    9   37 2
    16   10   20 1
    17   10   34 am
    18   10   38 2
    19   11   12 1
    20   11   13 1
    21   12   14 1
    22   13   15 1
    23   14   21 1
    24   15   21 1
    25   16   18 1
    26   16   20 1
    27   17   19 1
    28   17   22 1
    29   18   30 1
    30   19   30 1
    31   20   29 1
    32   21   33 1
    33   22   23 1
    34   22   31 1
    35   24   25 1
    36   24   26 1
    37   25   27 1
    38   26   28 1
    39   27   32 1
    40   28   34 1
    41   29   30 1
    42    1   39 1
    43    2   40 1
    44    3   41 1
    45    4   42 1
    46    5   43 1
    47   11   44 1
    48   11   45 1
    49   12   46 1
    50   12   47 1
    51   13   48 1
    52   13   49 1
    53   14   50 1
    54   14   51 1
    55   15   52 1
    56   15   53 1
    57   16   54 1
    58   16   55 1
    59   17   56 1
    60   17   57 1
    61   18   58 1
    62   18   59 1
    63   19   60 1
    64   19   61 1
    65   20   62 1
    66   21   63 1
    67   23   64 1
    68   23   65 1
    69   24   66 1
    70   24   67 1
    71   25   68 1
    72   25   69 1
    73   26   70 1
    74   26   71 1
    75   27   72 1
    76   27   73 1
    77   28   74 1
    78   31   75 1
    79   31   76 1
    80   32   77 1
    81   32   78 1
    82   33   79 1
    83   34   80 1
@<TRIPOS>MOLECULE
1a46_ligand_160
   80    83     0     0     0
SMALL
USER_CHARGES

mmff94s_NoEstat = 84.37
@<TRIPOS>ATOM
      1 C1          9.3427    1.2226  -10.2936 C.ar      1 <0>        -0.1300
      2 C2          9.9666    0.8172   -9.1138 C.ar      1 <0>        -0.1323
      3 C3          8.4336    2.2805  -10.2739 C.ar      1 <0>        -0.1309
      4 C4          9.6814    1.4695   -7.9143 C.ar      1 <0>        -0.1275
      5 C5          8.1485    2.9328   -9.0744 C.ar      1 <0>        -0.1272
      6 C6          8.7742    2.5231   -7.9024 C.ar      1 <0>        -0.0843
      7 C7          6.9710    3.2795   -4.5657 C.2       1 <0>         0.6709
      8 C8          5.2358    2.3798    1.5634 C.2       1 <0>         0.4867
      9 C9          5.6522    1.1980    2.3894 C.2       1 <0>         0.5883
     10 C10         5.7098    2.8119   -1.6475 C.2       1 <0>         0.6572
     11 C11         8.5733   -2.2013    0.3137 C.3       1 <0>        -0.0802
     12 C12         7.0878   -2.2472   -0.0344 C.3       1 <0>        -0.0765
     13 C13         8.9012   -1.0498    1.2605 C.3       1 <0>        -0.0774
     14 C14         6.2162   -2.2794    1.2217 C.3       1 <0>        -0.0953
     15 C15         8.0255   -1.0852    2.5138 C.3       1 <0>        -0.0906
     16 C16         3.6624    3.2324   -3.0320 C.3       1 <0>        -0.0871
     17 C17         6.0388    2.5547   -6.7975 C.3       1 <0>        -0.0716
     18 C18         3.6514    1.9752   -3.8994 C.3       1 <0>         0.1333
     19 C19         4.6996    2.4463   -6.0480 C.3       1 <0>         0.1246
     20 C20         5.1372    3.5153   -2.8394 C.3       1 <0>         0.0606
     21 C21         6.5260   -1.1310    2.1912 C.3       1 <0>         0.1012
     22 C22         7.2891    2.5653   -5.8869 C.3       1 <0>         0.1554
     23 C23         8.4675    3.2247   -6.6121 C.3       1 <0>        -0.0356
     24 C24         7.6485    3.7409    2.8432 C.3       1 <0>        -0.0795
     25 C25         8.2774    4.8743    3.6620 C.3       1 <0>        -0.1203
     26 C26         6.9719    4.2276    1.5544 C.3       1 <0>        -0.0920
     27 C27         8.9284    4.3945    4.9589 C.3       1 <0>         0.1502
     28 C28         6.2906    3.1130    0.7514 C.3       1 <0>         0.0224
     29 N1          5.7488    2.9259   -4.0152 N.am      1 <0>        -0.3553
     30 N2          4.9069    2.0073   -4.6693 N.3       1 <0>        -0.4320
     31 N3          7.6768    1.1953   -5.5201 N.3       1 <0>        -0.9031
     32 N4         10.0019    3.4511    4.6645 N.3       1 <0>        -0.9068
     33 N5          6.0911    0.1457    1.6201 N.am      1 <0>        -0.5526
     34 N6          5.7762    3.5917   -0.5046 N.am      1 <0>        -0.5576
     35 O1          7.7474    4.0812   -4.0464 O.2       1 <0>        -0.6710
     36 O2          4.0675    2.7325    1.6631 O.2       1 <0>        -0.4901
     37 O3          5.5431    1.2807    3.6019 O.2       1 <0>        -0.5902
     38 O4          6.0670    1.6440   -1.7490 O.2       1 <0>        -0.5833
     39 H1          9.5646    0.7147  -11.2275 H         1 <0>         0.1320
     40 H2         10.6743   -0.0064   -9.1292 H         1 <0>         0.1324
     41 H3          7.9478    2.5960  -11.1926 H         1 <0>         0.1328
     42 H4         10.1723    1.1467   -7.0000 H         1 <0>         0.1324
     43 H5          7.4388    3.7559   -9.0687 H         1 <0>         0.1434
     44 H6          8.8652   -3.1496    0.7818 H         1 <0>         0.0405
     45 H7          9.1645   -2.1042   -0.6039 H         1 <0>         0.0421
     46 H8          6.8280   -1.3732   -0.6439 H         1 <0>         0.0362
     47 H9          6.8815   -3.1326   -0.6466 H         1 <0>         0.0439
     48 H10         9.9572   -1.1013    1.5494 H         1 <0>         0.0350
     49 H11         8.7621   -0.0959    0.7377 H         1 <0>         0.0428
     50 H12         5.1599   -2.2505    0.9279 H         1 <0>         0.0663
     51 H13         6.3761   -3.2341    1.7388 H         1 <0>         0.0466
     52 H14         8.2894   -1.9712    3.1052 H         1 <0>         0.0493
     53 H15         8.2509   -0.2099    3.1351 H         1 <0>         0.0520
     54 H16         3.1996    4.0578   -3.5869 H         1 <0>         0.0915
     55 H17         3.1150    3.0948   -2.0945 H         1 <0>         0.0601
     56 H18         6.1186    1.7328   -7.5220 H         1 <0>         0.0688
     57 H19         6.0134    3.4760   -7.3953 H         1 <0>         0.0630
     58 H20         3.6705    1.0888   -3.2538 H         1 <0>         0.0807
     59 H21         2.7495    1.9066   -4.5175 H         1 <0>         0.0380
     60 H22         4.1937    3.4213   -6.0771 H         1 <0>         0.0484
     61 H23         4.0529    1.7380   -6.5798 H         1 <0>         0.0697
     62 H24         5.3721    4.5807   -2.7630 H         1 <0>         0.0843
     63 H25         5.9510   -1.2586    3.1143 H         1 <0>         0.0831
     64 H26         9.3395    3.2124   -5.9558 H         1 <0>         0.0704
     65 H27         8.2279    4.2735   -6.7972 H         1 <0>         0.0718
     66 H28         8.4445    3.0306    2.5915 H         1 <0>         0.0606
     67 H29         6.9275    3.2007    3.4679 H         1 <0>         0.0458
     68 H30         9.0354    5.3625    3.0356 H         1 <0>         0.0375
     69 H31         7.5157    5.6329    3.8824 H         1 <0>         0.0392
     70 H32         7.7210    4.7221    0.9235 H         1 <0>         0.0606
     71 H33         6.2174    4.9831    1.8035 H         1 <0>         0.0579
     72 H34         8.1846    3.9091    5.6001 H         1 <0>         0.0571
     73 H35         9.3517    5.2370    5.5137 H         1 <0>         0.0503
     74 H36         7.0421    2.3587    0.4881 H         1 <0>         0.0993
     75 H37         6.9507    0.5323   -5.3773 H         1 <0>         0.3700
     76 H38         8.6161    1.0420   -5.2343 H         1 <0>         0.3660
     77 H39        10.4299    2.9725    5.4279 H         1 <0>         0.3465
     78 H40        10.4049    3.4672    3.7521 H         1 <0>         0.3446
     79 H41         6.1146    0.2589    0.6111 H         1 <0>         0.3148
     80 H42         5.4441    4.5531   -0.5557 H         1 <0>         0.3220
@<TRIPOS>BOND
     1    1    2 ar
     2    1    3 ar
     3    2    4 ar
     4    3    5 ar
     5    4    6 ar
     6    5    6 ar
     7    6   23 1
     8    7   22 1
     9    7   29 am
    10    7   35 2
    11    8    9 1
    12    8   28 1
    13    8   36 2
    14    9   33 am
    15    9   37 2
    16   10   20 1
    17   10   34 am
    18   10   38 2
    19   11   12 1
    20   11   13 1
    21   12   14 1
    22   13   15 1
    23   14   21 1
    24   15   21 1
    25   16   18 1
    26   16   20 1
    27   17   19 1
    28   17   22 1
    29   18   30 1
    30   19   30 1
    31   20   29 1
    32   21   33 1
    33   22   23 1
    34   22   31 1
    35   24   25 1
    36   24   26 1
    37   25   27 1
    38   26   28 1
    39   27   32 1
    40   28   34 1
    41   29   30 1
    42    1   39 1
    43    2   40 1
    44    3   41 1
    45    4   42 1
    46    5   43 1
    47   11   44 1
    48   11   45 1
    49   12   46 1
    50   12   47 1
    51   13   48 1
    52   13   49 1
    53   14   50 1
    54   14   51 1
    55   15   52 1
    56   15   53 1
    57   16   54 1
    58   16   55 1
    59   17   56 1
    60   17   57 1
    61   18   58 1
    62   18   59 1
    63   19   60 1
    64   19   61 1
    65   20   62 1
    66   21   63 1
    67   23   64 1
    68   23   65 1
    69   24   66 1
    70   24   67 1
    71   25   68 1
    72   25   69 1
    73   26   70 1
    74   26   71 1
    75   27   72 1
    76   27   73 1
    77   28   74 1
    78   31   75 1
    79   31   76 1
    80   32   77 1
    81   32   78 1
    82   33   79 1
    83   34   80 1
@<TRIPOS>MOLECULE
1a46_ligand_161
   80    83     0     0     0
SMALL
USER_CHARGES

mmff94s_NoEstat = 84.37
@<TRIPOS>ATOM
      1 C1          9.3778    1.4071  -10.5376 C.ar      1 <0>        -0.1300
      2 C2         10.0902    1.0682   -9.3873 C.ar      1 <0>        -0.1323
      3 C3          8.4252    2.4251  -10.4935 C.ar      1 <0>        -0.1309
      4 C4          9.8499    1.7472   -8.1928 C.ar      1 <0>        -0.1275
      5 C5          8.1849    3.1040   -9.2989 C.ar      1 <0>        -0.1272
      6 C6          8.8988    2.7607   -8.1564 C.ar      1 <0>        -0.0843
      7 C7          7.2708    3.5496   -4.7381 C.2       1 <0>         0.6709
      8 C8          5.2358    2.3798    1.5634 C.2       1 <0>         0.4867
      9 C9          5.3950    2.3039    3.0538 C.2       1 <0>         0.5883
     10 C10         6.2126    3.1256   -1.7338 C.2       1 <0>         0.6572
     11 C11         9.8151    1.0691    4.8799 C.3       1 <0>        -0.0802
     12 C12         8.9381   -0.0596    4.3444 C.3       1 <0>        -0.0765
     13 C13         9.1469    2.4326    4.7241 C.3       1 <0>        -0.0774
     14 C14         7.5441   -0.0356    4.9728 C.3       1 <0>        -0.0953
     15 C15         7.7525    2.4508    5.3519 C.3       1 <0>        -0.0906
     16 C16         4.0677    3.4116   -2.9998 C.3       1 <0>        -0.0871
     17 C17         6.2374    2.7118   -6.8841 C.3       1 <0>        -0.0716
     18 C18         4.0600    2.1270   -3.8260 C.3       1 <0>         0.1333
     19 C19         4.9528    2.5709   -6.0494 C.3       1 <0>         0.1246
     20 C20         5.5372    3.7637   -2.9085 C.3       1 <0>         0.0606
     21 C21         6.8497    1.3253    4.8295 C.3       1 <0>         0.1012
     22 C22         7.5393    2.8062   -6.0542 C.3       1 <0>         0.1554
     23 C23         8.6404    3.4910   -6.8715 C.3       1 <0>        -0.0356
     24 C24         6.0158    5.3379    2.0114 C.3       1 <0>        -0.0795
     25 C25         6.7209    6.4716    2.7653 C.3       1 <0>        -0.1203
     26 C26         6.9719    4.2276    1.5544 C.3       1 <0>        -0.0920
     27 C27         5.7742    7.5909    3.1979 C.3       1 <0>         0.1502
     28 C28         6.2906    3.1130    0.7514 C.3       1 <0>         0.0224
     29 N1          6.1017    3.1624   -4.1017 N.am      1 <0>        -0.3553
     30 N2          5.2634    2.1873   -4.6736 N.3       1 <0>        -0.4320
     31 N3          8.0097    1.4670   -5.6708 N.3       1 <0>        -0.9031
     32 N4          6.5168    8.6391    3.8900 N.3       1 <0>        -0.9068
     33 N5          6.4949    1.5685    3.4295 N.am      1 <0>        -0.5526
     34 N6          5.7762    3.5917   -0.5046 N.am      1 <0>        -0.5576
     35 O1          8.0408    4.4006   -4.2931 O.2       1 <0>        -0.6710
     36 O2          4.2060    1.9080    1.0985 O.2       1 <0>        -0.4901
     37 O3          4.5583    2.8586    3.7473 O.2       1 <0>        -0.5902
     38 O4          7.0689    2.2691   -1.9210 O.2       1 <0>        -0.5833
     39 H1          9.5648    0.8784  -11.4677 H         1 <0>         0.1320
     40 H2         10.8319    0.2756   -9.4218 H         1 <0>         0.1324
     41 H3          7.8704    2.6887  -11.3892 H         1 <0>         0.1328
     42 H4         10.4098    1.4763   -7.3016 H         1 <0>         0.1324
     43 H5          7.4407    3.8957   -9.2740 H         1 <0>         0.1434
     44 H6         10.0291    0.8896    5.9408 H         1 <0>         0.0405
     45 H7         10.7780    1.0682    4.3566 H         1 <0>         0.0421
     46 H8          8.8552    0.0275    3.2543 H         1 <0>         0.0362
     47 H9          9.4160   -1.0245    4.5493 H         1 <0>         0.0439
     48 H10         9.7701    3.2027    5.1927 H         1 <0>         0.0350
     49 H11         9.0775    2.6860    3.6593 H         1 <0>         0.0428
     50 H12         6.9302   -0.8221    4.5174 H         1 <0>         0.0663
     51 H13         7.6325   -0.2791    6.0392 H         1 <0>         0.0466
     52 H14         7.8529    2.3503    6.4402 H         1 <0>         0.0493
     53 H15         7.2863    3.4257    5.1647 H         1 <0>         0.0520
     54 H16         3.5352    4.1976   -3.5496 H         1 <0>         0.0915
     55 H17         3.5853    3.2820   -2.0262 H         1 <0>         0.0601
     56 H18         6.3096    1.8704   -7.5867 H         1 <0>         0.0688
     57 H19         6.1343    3.6107   -7.5070 H         1 <0>         0.0630
     58 H20         4.1583    1.2642   -3.1562 H         1 <0>         0.0807
     59 H21         3.1259    1.9993   -4.3842 H         1 <0>         0.0380
     60 H22         4.4028    3.5219   -6.0765 H         1 <0>         0.0484
     61 H23         4.3072    1.8183   -6.5178 H         1 <0>         0.0697
     62 H24         5.7284    4.8402   -2.8795 H         1 <0>         0.0843
     63 H25         5.9045    1.3202    5.3824 H         1 <0>         0.0831
     64 H26         9.5506    3.5379   -6.2709 H         1 <0>         0.0704
     65 H27         8.3431    4.5219   -7.0731 H         1 <0>         0.0718
     66 H28         5.2579    4.9142    2.6804 H         1 <0>         0.0606
     67 H29         5.4809    5.7546    1.1500 H         1 <0>         0.0458
     68 H30         7.2000    6.0392    3.6534 H         1 <0>         0.0375
     69 H31         7.5258    6.8807    2.1417 H         1 <0>         0.0392
     70 H32         7.4599    3.7926    2.4354 H         1 <0>         0.0606
     71 H33         7.7645    4.6634    0.9347 H         1 <0>         0.0579
     72 H34         4.9986    7.1962    3.8630 H         1 <0>         0.0571
     73 H35         5.2784    8.0349    2.3297 H         1 <0>         0.0503
     74 H36         7.0421    2.3587    0.4881 H         1 <0>         0.0993
     75 H37         7.3242    0.7786   -5.4626 H         1 <0>         0.3700
     76 H38         8.9706    1.3637   -5.4396 H         1 <0>         0.3660
     77 H39         5.9996    9.3711    4.3277 H         1 <0>         0.3465
     78 H40         7.4997    8.7018    3.7315 H         1 <0>         0.3446
     79 H41         7.0876    1.1766    2.7037 H         1 <0>         0.3148
     80 H42         5.0545    4.3100   -0.4888 H         1 <0>         0.3220
@<TRIPOS>BOND
     1    1    2 ar
     2    1    3 ar
     3    2    4 ar
     4    3    5 ar
     5    4    6 ar
     6    5    6 ar
     7    6   23 1
     8    7   22 1
     9    7   29 am
    10    7   35 2
    11    8    9 1
    12    8   28 1
    13    8   36 2
    14    9   33 am
    15    9   37 2
    16   10   20 1
    17   10   34 am
    18   10   38 2
    19   11   12 1
    20   11   13 1
    21   12   14 1
    22   13   15 1
    23   14   21 1
    24   15   21 1
    25   16   18 1
    26   16   20 1
    27   17   19 1
    28   17   22 1
    29   18   30 1
    30   19   30 1
    31   20   29 1
    32   21   33 1
    33   22   23 1
    34   22   31 1
    35   24   25 1
    36   24   26 1
    37   25   27 1
    38   26   28 1
    39   27   32 1
    40   28   34 1
    41   29   30 1
    42    1   39 1
    43    2   40 1
    44    3   41 1
    45    4   42 1
    46    5   43 1
    47   11   44 1
    48   11   45 1
    49   12   46 1
    50   12   47 1
    51   13   48 1
    52   13   49 1
    53   14   50 1
    54   14   51 1
    55   15   52 1
    56   15   53 1
    57   16   54 1
    58   16   55 1
    59   17   56 1
    60   17   57 1
    61   18   58 1
    62   18   59 1
    63   19   60 1
    64   19   61 1
    65   20   62 1
    66   21   63 1
    67   23   64 1
    68   23   65 1
    69   24   66 1
    70   24   67 1
    71   25   68 1
    72   25   69 1
    73   26   70 1
    74   26   71 1
    75   27   72 1
    76   27   73 1
    77   28   74 1
    78   31   75 1
    79   31   76 1
    80   32   77 1
    81   32   78 1
    82   33   79 1
    83   34   80 1
@<TRIPOS>MOLECULE
1a46_ligand_162
   80    83     0     0     0
SMALL
USER_CHARGES

mmff94s_NoEstat = 84.38
@<TRIPOS>ATOM
      1 C1         11.1945    5.3647   -9.7731 C.ar      1 <0>        -0.1300
      2 C2         11.8337    5.1154   -8.5586 C.ar      1 <0>        -0.1323
      3 C3          9.8873    5.8513   -9.7863 C.ar      1 <0>        -0.1309
      4 C4         11.1656    5.3526   -7.3573 C.ar      1 <0>        -0.1275
      5 C5          9.2192    6.0884   -8.5850 C.ar      1 <0>        -0.1272
      6 C6          9.8628    5.8375   -7.3783 C.ar      1 <0>        -0.0843
      7 C7          7.6425    5.1042   -4.2977 C.2       1 <0>         0.6709
      8 C8          5.2358    2.3798    1.5634 C.2       1 <0>         0.4867
      9 C9          5.6522    1.1980    2.3894 C.2       1 <0>         0.5883
     10 C10         6.5256    3.6321   -1.6689 C.2       1 <0>         0.6572
     11 C11         5.8911   -3.1928    0.1399 C.3       1 <0>        -0.0802
     12 C12         4.7903   -2.5697    0.9943 C.3       1 <0>        -0.0765
     13 C13         7.0788   -2.2502   -0.0351 C.3       1 <0>        -0.0774
     14 C14         5.3303   -2.0814    2.3392 C.3       1 <0>        -0.0953
     15 C15         7.6136   -1.7629    1.3123 C.3       1 <0>        -0.0906
     16 C16         4.6595    3.2577   -3.3009 C.3       1 <0>        -0.0871
     17 C17         7.3760    4.3986   -6.7074 C.3       1 <0>        -0.0716
     18 C18         5.3367    2.3027   -4.2819 C.3       1 <0>         0.1333
     19 C19         6.2012    3.5529   -6.1864 C.3       1 <0>         0.1246
     20 C20         5.7868    4.1659   -2.8575 C.3       1 <0>         0.0606
     21 C21         6.5260   -1.1310    2.1912 C.3       1 <0>         0.1012
     22 C22         8.3797    4.8486   -5.6198 C.3       1 <0>         0.1554
     23 C23         9.1441    6.0926   -6.0861 C.3       1 <0>        -0.0356
     24 C24         7.6485    3.7409    2.8432 C.3       1 <0>        -0.0795
     25 C25         8.2774    4.8743    3.6620 C.3       1 <0>        -0.1203
     26 C26         6.9719    4.2276    1.5544 C.3       1 <0>        -0.0920
     27 C27         8.9284    4.3945    4.9589 C.3       1 <0>         0.1502
     28 C28         6.2906    3.1130    0.7514 C.3       1 <0>         0.0224
     29 N1          6.7058    4.1331   -3.9791 N.am      1 <0>        -0.3553
     30 N2          6.4777    3.0462   -4.8435 N.3       1 <0>        -0.4320
     31 N3          9.3531    3.7833   -5.3380 N.3       1 <0>        -0.9031
     32 N4          9.4866    5.5266    5.6910 N.3       1 <0>        -0.9068
     33 N5          6.0911    0.1457    1.6201 N.am      1 <0>        -0.5526
     34 N6          5.7762    3.5917   -0.5046 N.am      1 <0>        -0.5576
     35 O1          7.8821    6.0807   -3.5877 O.2       1 <0>        -0.6710
     36 O2          4.0675    2.7325    1.6631 O.2       1 <0>        -0.4901
     37 O3          5.5431    1.2807    3.6019 O.2       1 <0>        -0.5902
     38 O4          7.6924    3.2783   -1.7917 O.2       1 <0>        -0.5833
     39 H1         11.7147    5.1800  -10.7084 H         1 <0>         0.1320
     40 H2         12.8515    4.7366   -8.5485 H         1 <0>         0.1324
     41 H3          9.3897    6.0452  -10.7320 H         1 <0>         0.1328
     42 H4         11.6716    5.1554   -6.4159 H         1 <0>         0.1324
     43 H5          8.2009    6.4675   -8.6050 H         1 <0>         0.1434
     44 H6          6.2329   -4.1227    0.6110 H         1 <0>         0.0405
     45 H7          5.4871   -3.4636   -0.8422 H         1 <0>         0.0421
     46 H8          4.3356   -1.7325    0.4511 H         1 <0>         0.0362
     47 H9          3.9961   -3.3058    1.1637 H         1 <0>         0.0439
     48 H10         7.8774   -2.7635   -0.5827 H         1 <0>         0.0350
     49 H11         6.7768   -1.3914   -0.6467 H         1 <0>         0.0428
     50 H12         4.5228   -1.5882    2.8938 H         1 <0>         0.0663
     51 H13         5.6388   -2.9510    2.9333 H         1 <0>         0.0466
     52 H14         8.0534   -2.6142    1.8474 H         1 <0>         0.0493
     53 H15         8.4235   -1.0439    1.1392 H         1 <0>         0.0520
     54 H16         3.9023    3.8458   -3.8340 H         1 <0>         0.0915
     55 H17         4.1709    2.7289   -2.4768 H         1 <0>         0.0601
     56 H18         7.9078    3.8408   -7.4902 H         1 <0>         0.0688
     57 H19         6.9559    5.2827   -7.2061 H         1 <0>         0.0630
     58 H20         5.7303    1.4383   -3.7336 H         1 <0>         0.0807
     59 H21         4.6390    1.9190   -5.0344 H         1 <0>         0.0380
     60 H22         5.2889    4.1652   -6.1941 H         1 <0>         0.0484
     61 H23         6.0298    2.7205   -6.8794 H         1 <0>         0.0697
     62 H24         5.4651    5.1881   -2.6391 H         1 <0>         0.0843
     63 H25         6.9368   -0.8941    3.1782 H         1 <0>         0.0831
     64 H26         9.8520    6.3858   -5.3087 H         1 <0>         0.0704
     65 H27         8.4405    6.9195   -6.1990 H         1 <0>         0.0718
     66 H28         8.4445    3.0306    2.5915 H         1 <0>         0.0606
     67 H29         6.9275    3.2007    3.4679 H         1 <0>         0.0458
     68 H30         9.0354    5.3625    3.0356 H         1 <0>         0.0375
     69 H31         7.5157    5.6329    3.8824 H         1 <0>         0.0392
     70 H32         7.7210    4.7221    0.9235 H         1 <0>         0.0606
     71 H33         6.2174    4.9831    1.8035 H         1 <0>         0.0579
     72 H34         9.7251    3.6753    4.7403 H         1 <0>         0.0571
     73 H35         8.1937    3.8977    5.5994 H         1 <0>         0.0503
     74 H36         7.0421    2.3587    0.4881 H         1 <0>         0.0993
     75 H37         9.0331    2.8434   -5.3754 H         1 <0>         0.3700
     76 H38        10.2196    4.0460   -4.9287 H         1 <0>         0.3660
     77 H39        10.0430    5.3371    6.4969 H         1 <0>         0.3465
     78 H40         9.1331    6.4373    5.4892 H         1 <0>         0.3446
     79 H41         6.1146    0.2589    0.6111 H         1 <0>         0.3148
     80 H42         4.8120    3.9176   -0.5391 H         1 <0>         0.3220
@<TRIPOS>BOND
     1    1    2 ar
     2    1    3 ar
     3    2    4 ar
     4    3    5 ar
     5    4    6 ar
     6    5    6 ar
     7    6   23 1
     8    7   22 1
     9    7   29 am
    10    7   35 2
    11    8    9 1
    12    8   28 1
    13    8   36 2
    14    9   33 am
    15    9   37 2
    16   10   20 1
    17   10   34 am
    18   10   38 2
    19   11   12 1
    20   11   13 1
    21   12   14 1
    22   13   15 1
    23   14   21 1
    24   15   21 1
    25   16   18 1
    26   16   20 1
    27   17   19 1
    28   17   22 1
    29   18   30 1
    30   19   30 1
    31   20   29 1
    32   21   33 1
    33   22   23 1
    34   22   31 1
    35   24   25 1
    36   24   26 1
    37   25   27 1
    38   26   28 1
    39   27   32 1
    40   28   34 1
    41   29   30 1
    42    1   39 1
    43    2   40 1
    44    3   41 1
    45    4   42 1
    46    5   43 1
    47   11   44 1
    48   11   45 1
    49   12   46 1
    50   12   47 1
    51   13   48 1
    52   13   49 1
    53   14   50 1
    54   14   51 1
    55   15   52 1
    56   15   53 1
    57   16   54 1
    58   16   55 1
    59   17   56 1
    60   17   57 1
    61   18   58 1
    62   18   59 1
    63   19   60 1
    64   19   61 1
    65   20   62 1
    66   21   63 1
    67   23   64 1
    68   23   65 1
    69   24   66 1
    70   24   67 1
    71   25   68 1
    72   25   69 1
    73   26   70 1
    74   26   71 1
    75   27   72 1
    76   27   73 1
    77   28   74 1
    78   31   75 1
    79   31   76 1
    80   32   77 1
    81   32   78 1
    82   33   79 1
    83   34   80 1
@<TRIPOS>MOLECULE
1a46_ligand_163
   80    83     0     0     0
SMALL
USER_CHARGES

mmff94s_NoEstat = 84.41
@<TRIPOS>ATOM
      1 C1         -5.0984    1.0095  -15.6042 C.ar      1 <0>        -0.1300
      2 C2         -3.7796    1.4634  -15.6236 C.ar      1 <0>        -0.1323
      3 C3         -5.8613    1.1325  -14.4430 C.ar      1 <0>        -0.1309
      4 C4         -3.2237    2.0403  -14.4818 C.ar      1 <0>        -0.1275
      5 C5         -5.3054    1.7094  -13.3011 C.ar      1 <0>        -0.1272
      6 C6         -3.9903    2.1595  -13.3280 C.ar      1 <0>        -0.0843
      7 C7         -2.1082    2.3543   -9.9549 C.2       1 <0>         0.6709
      8 C8          2.7796    3.2097   -6.1637 C.2       1 <0>         0.4867
      9 C9          2.0233    2.5606   -5.0416 C.2       1 <0>         0.5883
     10 C10         0.2181    1.9581   -7.7739 C.2       1 <0>         0.6572
     11 C11        -1.1983    3.7207   -0.8594 C.3       1 <0>        -0.0802
     12 C12         0.1389    2.9880   -0.7975 C.3       1 <0>        -0.0765
     13 C13        -1.9301    3.4474   -2.1704 C.3       1 <0>        -0.0774
     14 C14         1.0149    3.3109   -2.0068 C.3       1 <0>        -0.0953
     15 C15        -1.0566    3.7714   -3.3812 C.3       1 <0>        -0.0906
     16 C16        -1.6037    0.5018   -6.8541 C.3       1 <0>        -0.0871
     17 C17        -3.7434    0.6334  -10.8151 C.3       1 <0>        -0.0716
     18 C18        -1.6334   -0.6036   -7.9078 C.3       1 <0>         0.1333
     19 C19        -3.3867   -0.1439   -9.5363 C.3       1 <0>         0.1246
     20 C20        -1.2590    1.7411   -7.6524 C.3       1 <0>         0.0606
     21 C21         0.2802    3.0242   -3.3210 C.3       1 <0>         0.1012
     22 C22        -2.7218    1.7245  -11.2134 C.3       1 <0>         0.1554
     23 C23        -3.3923    2.7801  -12.0997 C.3       1 <0>        -0.0356
     24 C24         3.6080    5.6033   -7.8654 C.3       1 <0>        -0.0795
     25 C25         3.7321    7.1143   -8.0937 C.3       1 <0>        -0.1203
     26 C26         2.1570    5.1335   -7.6933 C.3       1 <0>        -0.0920
     27 C27         5.1782    7.5875   -8.2387 C.3       1 <0>         0.1502
     28 C28         2.0196    3.6328   -7.4097 C.3       1 <0>         0.0224
     29 N1         -1.7541    1.4338   -8.9807 N.am      1 <0>        -0.3553
     30 N2         -1.9849    0.0592   -9.1756 N.3       1 <0>        -0.4320
     31 N3         -1.5982    1.1378  -11.9581 N.3       1 <0>        -0.9031
     32 N4          5.2178    9.0330   -8.4337 N.3       1 <0>        -0.9068
     33 N5          1.1182    3.4132   -4.4536 N.am      1 <0>        -0.5526
     34 N6          0.6426    3.2153   -7.3763 N.am      1 <0>        -0.5576
     35 O1         -1.9389    3.5681   -9.8411 O.2       1 <0>        -0.6710
     36 O2          3.9949    3.2835   -6.0334 O.2       1 <0>        -0.4901
     37 O3          2.2923    1.4031   -4.7649 O.2       1 <0>        -0.5902
     38 O4          0.9290    1.0536   -8.1959 O.2       1 <0>        -0.5833
     39 H1         -5.5312    0.5602  -16.4933 H         1 <0>         0.1320
     40 H2         -3.1856    1.3675  -16.5278 H         1 <0>         0.1324
     41 H3         -6.8881    0.7789  -14.4280 H         1 <0>         0.1328
     42 H4         -2.1954    2.3911  -14.5062 H         1 <0>         0.1324
     43 H5         -5.9074    1.8011  -12.4009 H         1 <0>         0.1434
     44 H6         -1.8264    3.4137   -0.0156 H         1 <0>         0.0405
     45 H7         -1.0276    4.7993   -0.7557 H         1 <0>         0.0421
     46 H8          0.6667    3.2614    0.1232 H         1 <0>         0.0362
     47 H9         -0.0386    1.9064   -0.7551 H         1 <0>         0.0439
     48 H10        -2.2297    2.3928   -2.2092 H         1 <0>         0.0350
     49 H11        -2.8496    4.0422   -2.2099 H         1 <0>         0.0428
     50 H12         1.3158    4.3661   -1.9675 H         1 <0>         0.0663
     51 H13         1.9396    2.7230   -1.9588 H         1 <0>         0.0466
     52 H14        -1.5917    3.5080   -4.3017 H         1 <0>         0.0493
     53 H15        -0.8797    4.8543   -3.4237 H         1 <0>         0.0520
     54 H16        -2.6044    0.6122   -6.4185 H         1 <0>         0.0915
     55 H17        -0.8961    0.2875   -6.0474 H         1 <0>         0.0601
     56 H18        -3.8703   -0.0725  -11.6472 H         1 <0>         0.0688
     57 H19        -4.7294    1.0931  -10.6627 H         1 <0>         0.0630
     58 H20        -0.6289   -1.0307   -8.0140 H         1 <0>         0.0807
     59 H21        -2.3061   -1.4224   -7.6298 H         1 <0>         0.0380
     60 H22        -4.0515    0.1805   -8.7237 H         1 <0>         0.0484
     61 H23        -3.5864   -1.2093   -9.7025 H         1 <0>         0.0697
     62 H24        -1.7157    2.6547   -7.2615 H         1 <0>         0.0843
     63 H25         0.1077    1.9465   -3.4221 H         1 <0>         0.0831
     64 H26        -2.6520    3.5331  -12.3759 H         1 <0>         0.0704
     65 H27        -4.1617    3.2932  -11.5198 H         1 <0>         0.0718
     66 H28         4.0550    5.0981   -8.7294 H         1 <0>         0.0606
     67 H29         4.2035    5.3200   -6.9896 H         1 <0>         0.0458
     68 H30         3.1762    7.3642   -9.0068 H         1 <0>         0.0375
     69 H31         3.2423    7.6502   -7.2709 H         1 <0>         0.0392
     70 H32         1.5916    5.3838   -8.5996 H         1 <0>         0.0606
     71 H33         1.6928    5.6841   -6.8667 H         1 <0>         0.0579
     72 H34         5.6557    7.0931   -9.0916 H         1 <0>         0.0571
     73 H35         5.7562    7.3441   -7.3424 H         1 <0>         0.0503
     74 H36         2.4714    3.0747   -8.2388 H         1 <0>         0.0993
     75 H37        -1.2936    0.2294  -11.6949 H         1 <0>         0.3700
     76 H38        -1.0669    1.7403  -12.5430 H         1 <0>         0.3660
     77 H39         6.0938    9.4532   -8.6597 H         1 <0>         0.3465
     78 H40         4.4297    9.5689   -8.1390 H         1 <0>         0.3446
     79 H41         1.0281    4.3550   -4.8229 H         1 <0>         0.3148
     80 H42        -0.0552    3.8781   -7.0434 H         1 <0>         0.3220
@<TRIPOS>BOND
     1    1    2 ar
     2    1    3 ar
     3    2    4 ar
     4    3    5 ar
     5    4    6 ar
     6    5    6 ar
     7    6   23 1
     8    7   22 1
     9    7   29 am
    10    7   35 2
    11    8    9 1
    12    8   28 1
    13    8   36 2
    14    9   33 am
    15    9   37 2
    16   10   20 1
    17   10   34 am
    18   10   38 2
    19   11   12 1
    20   11   13 1
    21   12   14 1
    22   13   15 1
    23   14   21 1
    24   15   21 1
    25   16   18 1
    26   16   20 1
    27   17   19 1
    28   17   22 1
    29   18   30 1
    30   19   30 1
    31   20   29 1
    32   21   33 1
    33   22   23 1
    34   22   31 1
    35   24   25 1
    36   24   26 1
    37   25   27 1
    38   26   28 1
    39   27   32 1
    40   28   34 1
    41   29   30 1
    42    1   39 1
    43    2   40 1
    44    3   41 1
    45    4   42 1
    46    5   43 1
    47   11   44 1
    48   11   45 1
    49   12   46 1
    50   12   47 1
    51   13   48 1
    52   13   49 1
    53   14   50 1
    54   14   51 1
    55   15   52 1
    56   15   53 1
    57   16   54 1
    58   16   55 1
    59   17   56 1
    60   17   57 1
    61   18   58 1
    62   18   59 1
    63   19   60 1
    64   19   61 1
    65   20   62 1
    66   21   63 1
    67   23   64 1
    68   23   65 1
    69   24   66 1
    70   24   67 1
    71   25   68 1
    72   25   69 1
    73   26   70 1
    74   26   71 1
    75   27   72 1
    76   27   73 1
    77   28   74 1
    78   31   75 1
    79   31   76 1
    80   32   77 1
    81   32   78 1
    82   33   79 1
    83   34   80 1
@<TRIPOS>MOLECULE
1a46_ligand_164
   80    83     0     0     0
SMALL
USER_CHARGES

mmff94s_NoEstat = 84.42
@<TRIPOS>ATOM
      1 C1          5.9504   -1.3642  -10.1903 C.ar      1 <0>        -0.1300
      2 C2          6.6765   -1.8241   -9.0918 C.ar      1 <0>        -0.1323
      3 C3          5.5463   -0.0305  -10.2504 C.ar      1 <0>        -0.1309
      4 C4          6.9984   -0.9504   -8.0532 C.ar      1 <0>        -0.1275
      5 C5          5.8681    0.8432   -9.2119 C.ar      1 <0>        -0.1272
      6 C6          6.5921    0.3776   -8.1201 C.ar      1 <0>        -0.0843
      7 C7          6.1974    2.2868   -4.7798 C.2       1 <0>         0.6709
      8 C8          5.2358    2.3798    1.5634 C.2       1 <0>         0.4867
      9 C9          4.0737    1.7586    0.8450 C.2       1 <0>         0.5883
     10 C10         5.7098    2.8119   -1.6475 C.2       1 <0>         0.6572
     11 C11        -0.3101    1.8066    3.1204 C.3       1 <0>        -0.0802
     12 C12         0.7521    0.7144    3.0271 C.3       1 <0>        -0.0765
     13 C13         0.1163    3.0793    2.3936 C.3       1 <0>        -0.0774
     14 C14         1.1457    0.4346    1.5761 C.3       1 <0>        -0.0953
     15 C15         0.5110    2.7940    0.9439 C.3       1 <0>        -0.0906
     16 C16         3.6723    3.8570   -2.6681 C.3       1 <0>        -0.0871
     17 C17         4.4858    1.7161   -6.5463 C.3       1 <0>        -0.0716
     18 C18         2.9535    2.6133   -3.1875 C.3       1 <0>         0.1333
     19 C19         3.4659    2.2898   -5.5476 C.3       1 <0>         0.1246
     20 C20         5.1372    3.5153   -2.8394 C.3       1 <0>         0.0606
     21 C21         1.5791    1.6990    0.8223 C.3       1 <0>         0.1012
     22 C22         5.8481    1.3265   -5.9256 C.3       1 <0>         0.1554
     23 C23         6.9383    1.3175   -7.0029 C.3       1 <0>        -0.0356
     24 C24         8.0800    4.9598    0.7851 C.3       1 <0>        -0.0795
     25 C25         8.7880    6.0338    1.6192 C.3       1 <0>        -0.1203
     26 C26         6.9719    4.2276    1.5544 C.3       1 <0>        -0.0920
     27 C27         9.9095    6.7454    0.8629 C.3       1 <0>         0.1502
     28 C28         6.2906    3.1130    0.7514 C.3       1 <0>         0.0224
     29 N1          5.1345    2.5635   -3.9339 N.am      1 <0>        -0.3553
     30 N2          3.8653    2.0037   -4.1710 N.3       1 <0>        -0.4320
     31 N3          5.7803   -0.0123   -5.3216 N.3       1 <0>        -0.9031
     32 N4         10.5470    7.7366    1.7233 N.3       1 <0>        -0.9068
     33 N5          2.8617    2.1823    1.3384 N.am      1 <0>        -0.5526
     34 N6          5.7762    3.5917   -0.5046 N.am      1 <0>        -0.5576
     35 O1          7.3278    2.7504   -4.6301 O.2       1 <0>        -0.6710
     36 O2          5.3022    2.1819    2.7699 O.2       1 <0>        -0.4901
     37 O3          4.3127    0.9617   -0.0474 O.2       1 <0>        -0.5902
     38 O4          6.0670    1.6440   -1.7490 O.2       1 <0>        -0.5833
     39 H1          5.6997   -2.0446  -10.9989 H         1 <0>         0.1320
     40 H2          6.9911   -2.8626   -9.0451 H         1 <0>         0.1324
     41 H3          4.9808    0.3274  -11.1059 H         1 <0>         0.1328
     42 H4          7.5644   -1.3176   -7.2012 H         1 <0>         0.1324
     43 H5          5.5489    1.8806   -9.2673 H         1 <0>         0.1434
     44 H6         -1.2478    1.4382    2.6861 H         1 <0>         0.0405
     45 H7         -0.5145    2.0336    4.1728 H         1 <0>         0.0421
     46 H8          1.6374    1.0154    3.6002 H         1 <0>         0.0362
     47 H9          0.3743   -0.2054    3.4883 H         1 <0>         0.0439
     48 H10        -0.7038    3.8062    2.4141 H         1 <0>         0.0350
     49 H11         0.9594    3.5381    2.9241 H         1 <0>         0.0428
     50 H12         1.9510   -0.3097    1.5585 H         1 <0>         0.0663
     51 H13         0.2884   -0.0125    1.0569 H         1 <0>         0.0466
     52 H14        -0.3828    2.4825    0.3884 H         1 <0>         0.0493
     53 H15         0.8670    3.7212    0.4787 H         1 <0>         0.0520
     54 H16         3.4181    4.7133   -3.3051 H         1 <0>         0.0915
     55 H17         3.3944    4.0971   -1.6373 H         1 <0>         0.0601
     56 H18         4.0497    0.8441   -7.0524 H         1 <0>         0.0688
     57 H19         4.6431    2.4675   -7.3320 H         1 <0>         0.0630
     58 H20         2.8170    1.9026   -2.3635 H         1 <0>         0.0807
     59 H21         1.9588    2.8453   -3.5837 H         1 <0>         0.0380
     60 H22         3.3744    3.3723   -5.7123 H         1 <0>         0.0484
     61 H23         2.4818    1.8533   -5.7569 H         1 <0>         0.0697
     62 H24         5.7646    4.3810   -3.0694 H         1 <0>         0.0843
     63 H25         1.7501    1.4622   -0.2331 H         1 <0>         0.0831
     64 H26         7.8868    1.0311   -6.5450 H         1 <0>         0.0704
     65 H27         7.0672    2.3317   -7.3854 H         1 <0>         0.0718
     66 H28         7.6494    5.4516   -0.0948 H         1 <0>         0.0606
     67 H29         8.8216    4.2418    0.4157 H         1 <0>         0.0458
     68 H30         8.0356    6.7709    1.9287 H         1 <0>         0.0375
     69 H31         9.1825    5.5824    2.5383 H         1 <0>         0.0392
     70 H32         6.2171    4.9575    1.8728 H         1 <0>         0.0606
     71 H33         7.3929    3.7874    2.4660 H         1 <0>         0.0579
     72 H34         9.5108    7.2416   -0.0285 H         1 <0>         0.0571
     73 H35        10.6706    6.0303    0.5375 H         1 <0>         0.0503
     74 H36         7.0421    2.3587    0.4881 H         1 <0>         0.0993
     75 H37         4.9287   -0.2795   -4.8849 H         1 <0>         0.3700
     76 H38         6.6336   -0.5056   -5.1950 H         1 <0>         0.3660
     77 H39        11.2163    8.3531    1.3147 H         1 <0>         0.3465
     78 H40        10.4498    7.6340    2.7108 H         1 <0>         0.3446
     79 H41         2.8559    2.8605    2.0944 H         1 <0>         0.3148
     80 H42         5.4441    4.5531   -0.5557 H         1 <0>         0.3220
@<TRIPOS>BOND
     1    1    2 ar
     2    1    3 ar
     3    2    4 ar
     4    3    5 ar
     5    4    6 ar
     6    5    6 ar
     7    6   23 1
     8    7   22 1
     9    7   29 am
    10    7   35 2
    11    8    9 1
    12    8   28 1
    13    8   36 2
    14    9   33 am
    15    9   37 2
    16   10   20 1
    17   10   34 am
    18   10   38 2
    19   11   12 1
    20   11   13 1
    21   12   14 1
    22   13   15 1
    23   14   21 1
    24   15   21 1
    25   16   18 1
    26   16   20 1
    27   17   19 1
    28   17   22 1
    29   18   30 1
    30   19   30 1
    31   20   29 1
    32   21   33 1
    33   22   23 1
    34   22   31 1
    35   24   25 1
    36   24   26 1
    37   25   27 1
    38   26   28 1
    39   27   32 1
    40   28   34 1
    41   29   30 1
    42    1   39 1
    43    2   40 1
    44    3   41 1
    45    4   42 1
    46    5   43 1
    47   11   44 1
    48   11   45 1
    49   12   46 1
    50   12   47 1
    51   13   48 1
    52   13   49 1
    53   14   50 1
    54   14   51 1
    55   15   52 1
    56   15   53 1
    57   16   54 1
    58   16   55 1
    59   17   56 1
    60   17   57 1
    61   18   58 1
    62   18   59 1
    63   19   60 1
    64   19   61 1
    65   20   62 1
    66   21   63 1
    67   23   64 1
    68   23   65 1
    69   24   66 1
    70   24   67 1
    71   25   68 1
    72   25   69 1
    73   26   70 1
    74   26   71 1
    75   27   72 1
    76   27   73 1
    77   28   74 1
    78   31   75 1
    79   31   76 1
    80   32   77 1
    81   32   78 1
    82   33   79 1
    83   34   80 1
@<TRIPOS>MOLECULE
1a46_ligand_165
   80    83     0     0     0
SMALL
USER_CHARGES

mmff94s_NoEstat = 84.48
@<TRIPOS>ATOM
      1 C1         -4.2961    6.3604   -2.7495 C.ar      1 <0>        -0.1300
      2 C2         -3.8917    5.7888   -1.5431 C.ar      1 <0>        -0.1323
      3 C3         -3.4839    6.2539   -3.8786 C.ar      1 <0>        -0.1309
      4 C4         -2.6752    5.1109   -1.4657 C.ar      1 <0>        -0.1275
      5 C5         -2.2674    5.5759   -3.8012 C.ar      1 <0>        -0.1272
      6 C6         -1.8709    5.0088   -2.5952 C.ar      1 <0>        -0.0843
      7 C7          1.9202    4.4855   -2.0375 C.2       1 <0>         0.6709
      8 C8          5.2358    2.3798    1.5634 C.2       1 <0>         0.4867
      9 C9          4.0737    1.7586    0.8450 C.2       1 <0>         0.5883
     10 C10         4.7954    4.5647   -0.6048 C.2       1 <0>         0.6572
     11 C11        -0.3101    1.8066    3.1204 C.3       1 <0>        -0.0802
     12 C12         0.7521    0.7144    3.0271 C.3       1 <0>        -0.0765
     13 C13         0.1163    3.0793    2.3936 C.3       1 <0>        -0.0774
     14 C14         1.1457    0.4346    1.5761 C.3       1 <0>        -0.0953
     15 C15         0.5110    2.7940    0.9439 C.3       1 <0>        -0.0906
     16 C16         5.1345    6.1376   -2.5274 C.3       1 <0>        -0.0871
     17 C17         0.6797    6.3873   -3.1418 C.3       1 <0>        -0.0716
     18 C18         4.2227    7.2889   -2.1078 C.3       1 <0>         0.1333
     19 C19         2.0578    7.0682   -3.2043 C.3       1 <0>         0.1246
     20 C20         4.4137    4.9104   -2.0113 C.3       1 <0>         0.0606
     21 C21         1.5791    1.6990    0.8223 C.3       1 <0>         0.1012
     22 C22         0.5786    5.2268   -2.1241 C.3       1 <0>         0.1554
     23 C23        -0.5623    4.2796   -2.5120 C.3       1 <0>        -0.0356
     24 C24         8.0800    4.9598    0.7851 C.3       1 <0>        -0.0795
     25 C25         8.7880    6.0338    1.6192 C.3       1 <0>        -0.1203
     26 C26         6.9719    4.2276    1.5544 C.3       1 <0>        -0.0920
     27 C27         9.9095    6.7454    0.8629 C.3       1 <0>         0.1502
     28 C28         6.2906    3.1130    0.7514 C.3       1 <0>         0.0224
     29 N1          3.0235    5.3233   -1.9852 N.am      1 <0>        -0.3553
     30 N2          2.8653    6.7208   -2.0365 N.3       1 <0>        -0.4320
     31 N3          0.3159    5.7420   -0.7724 N.3       1 <0>        -0.9031
     32 N4         10.5470    7.7366    1.7233 N.3       1 <0>        -0.9068
     33 N5          2.8617    2.1823    1.3384 N.am      1 <0>        -0.5526
     34 N6          5.7762    3.5917   -0.5046 N.am      1 <0>        -0.5576
     35 O1          1.9934    3.2573   -2.0040 O.2       1 <0>        -0.6710
     36 O2          5.3022    2.1819    2.7699 O.2       1 <0>        -0.4901
     37 O3          4.3127    0.9617   -0.0474 O.2       1 <0>        -0.5902
     38 O4          4.2448    5.1367    0.3286 O.2       1 <0>        -0.5833
     39 H1         -5.2433    6.8883   -2.8098 H         1 <0>         0.1320
     40 H2         -4.5242    5.8718   -0.6641 H         1 <0>         0.1324
     41 H3         -3.7988    6.6991   -4.8178 H         1 <0>         0.1328
     42 H4         -2.3683    4.6687   -0.5215 H         1 <0>         0.1324
     43 H5         -1.6411    5.4981   -4.6860 H         1 <0>         0.1434
     44 H6         -1.2478    1.4382    2.6861 H         1 <0>         0.0405
     45 H7         -0.5145    2.0336    4.1728 H         1 <0>         0.0421
     46 H8          1.6374    1.0154    3.6002 H         1 <0>         0.0362
     47 H9          0.3743   -0.2054    3.4883 H         1 <0>         0.0439
     48 H10        -0.7038    3.8062    2.4141 H         1 <0>         0.0350
     49 H11         0.9594    3.5381    2.9241 H         1 <0>         0.0428
     50 H12         1.9510   -0.3097    1.5585 H         1 <0>         0.0663
     51 H13         0.2884   -0.0125    1.0569 H         1 <0>         0.0466
     52 H14        -0.3828    2.4825    0.3884 H         1 <0>         0.0493
     53 H15         0.8670    3.7212    0.4787 H         1 <0>         0.0520
     54 H16         5.1868    6.0993   -3.6226 H         1 <0>         0.0915
     55 H17         6.1502    6.2483   -2.1355 H         1 <0>         0.0601
     56 H18        -0.0889    7.1398   -2.9187 H         1 <0>         0.0688
     57 H19         0.4458    6.0134   -4.1479 H         1 <0>         0.0630
     58 H20         4.5037    7.6265   -1.1030 H         1 <0>         0.0807
     59 H21         4.3115    8.1522   -2.7765 H         1 <0>         0.0380
     60 H22         2.5627    6.7687   -4.1331 H         1 <0>         0.0484
     61 H23         1.9139    8.1541   -3.2580 H         1 <0>         0.0697
     62 H24         4.5519    4.0254   -2.6387 H         1 <0>         0.0843
     63 H25         1.7501    1.4622   -0.2331 H         1 <0>         0.0831
     64 H26        -0.6211    3.4755   -1.7762 H         1 <0>         0.0704
     65 H27        -0.3254    3.8127   -3.4698 H         1 <0>         0.0718
     66 H28         7.6494    5.4516   -0.0948 H         1 <0>         0.0606
     67 H29         8.8216    4.2418    0.4157 H         1 <0>         0.0458
     68 H30         8.0356    6.7709    1.9287 H         1 <0>         0.0375
     69 H31         9.1825    5.5824    2.5383 H         1 <0>         0.0392
     70 H32         6.2171    4.9575    1.8728 H         1 <0>         0.0606
     71 H33         7.3929    3.7874    2.4660 H         1 <0>         0.0579
     72 H34         9.5108    7.2416   -0.0285 H         1 <0>         0.0571
     73 H35        10.6706    6.0303    0.5375 H         1 <0>         0.0503
     74 H36         7.0421    2.3587    0.4881 H         1 <0>         0.0993
     75 H37         0.7364    6.6054   -0.5173 H         1 <0>         0.3700
     76 H38        -0.0926    5.1211   -0.1128 H         1 <0>         0.3660
     77 H39        11.2163    8.3531    1.3147 H         1 <0>         0.3465
     78 H40        10.4498    7.6340    2.7108 H         1 <0>         0.3446
     79 H41         2.8559    2.8605    2.0944 H         1 <0>         0.3148
     80 H42         6.1527    3.1949   -1.3636 H         1 <0>         0.3220
@<TRIPOS>BOND
     1    1    2 ar
     2    1    3 ar
     3    2    4 ar
     4    3    5 ar
     5    4    6 ar
     6    5    6 ar
     7    6   23 1
     8    7   22 1
     9    7   29 am
    10    7   35 2
    11    8    9 1
    12    8   28 1
    13    8   36 2
    14    9   33 am
    15    9   37 2
    16   10   20 1
    17   10   34 am
    18   10   38 2
    19   11   12 1
    20   11   13 1
    21   12   14 1
    22   13   15 1
    23   14   21 1
    24   15   21 1
    25   16   18 1
    26   16   20 1
    27   17   19 1
    28   17   22 1
    29   18   30 1
    30   19   30 1
    31   20   29 1
    32   21   33 1
    33   22   23 1
    34   22   31 1
    35   24   25 1
    36   24   26 1
    37   25   27 1
    38   26   28 1
    39   27   32 1
    40   28   34 1
    41   29   30 1
    42    1   39 1
    43    2   40 1
    44    3   41 1
    45    4   42 1
    46    5   43 1
    47   11   44 1
    48   11   45 1
    49   12   46 1
    50   12   47 1
    51   13   48 1
    52   13   49 1
    53   14   50 1
    54   14   51 1
    55   15   52 1
    56   15   53 1
    57   16   54 1
    58   16   55 1
    59   17   56 1
    60   17   57 1
    61   18   58 1
    62   18   59 1
    63   19   60 1
    64   19   61 1
    65   20   62 1
    66   21   63 1
    67   23   64 1
    68   23   65 1
    69   24   66 1
    70   24   67 1
    71   25   68 1
    72   25   69 1
    73   26   70 1
    74   26   71 1
    75   27   72 1
    76   27   73 1
    77   28   74 1
    78   31   75 1
    79   31   76 1
    80   32   77 1
    81   32   78 1
    82   33   79 1
    83   34   80 1
@<TRIPOS>MOLECULE
1a46_ligand_166
   80    83     0     0     0
SMALL
USER_CHARGES

mmff94s_NoEstat = 84.48
@<TRIPOS>ATOM
      1 C1         -2.6445   10.2618   -2.2387 C.ar      1 <0>        -0.1300
      2 C2         -2.3767    9.6884   -0.9957 C.ar      1 <0>        -0.1323
      3 C3         -2.1497    9.6701   -3.4009 C.ar      1 <0>        -0.1309
      4 C4         -1.6141    8.5233   -0.9148 C.ar      1 <0>        -0.1275
      5 C5         -1.3871    8.5049   -3.3201 C.ar      1 <0>        -0.1272
      6 C6         -1.1243    7.9391   -2.0776 C.ar      1 <0>        -0.0843
      7 C7          2.0326    5.7272   -1.7627 C.2       1 <0>         0.6709
      8 C8          5.2358    2.3798    1.5634 C.2       1 <0>         0.4867
      9 C9          5.3950    2.3039    3.0538 C.2       1 <0>         0.5883
     10 C10         4.7954    4.5647   -0.6048 C.2       1 <0>         0.6572
     11 C11         1.4721    3.3012    5.8846 C.3       1 <0>        -0.0802
     12 C12         2.2288    4.4874    5.2926 C.3       1 <0>        -0.0765
     13 C13         2.0779    1.9676    5.4553 C.3       1 <0>        -0.0774
     14 C14         3.7235    4.4153    5.6076 C.3       1 <0>        -0.0953
     15 C15         3.5730    1.9014    5.7703 C.3       1 <0>        -0.0906
     16 C16         5.5346    5.5870   -2.7713 C.3       1 <0>        -0.0871
     17 C17         1.6625    7.8714   -3.0437 C.3       1 <0>        -0.0716
     18 C18         5.3303    7.0689   -2.4625 C.3       1 <0>         0.1333
     19 C19         3.1731    7.8019   -3.3266 C.3       1 <0>         0.1246
     20 C20         4.4137    4.9104   -2.0113 C.3       1 <0>         0.0606
     21 C21         4.3575    3.0833    5.1852 C.3       1 <0>         0.1012
     22 C22         1.1885    7.0064   -1.8522 C.3       1 <0>         0.1554
     23 C23        -0.3040    6.6858   -1.9906 C.3       1 <0>        -0.0356
     24 C24         8.0800    4.9598    0.7851 C.3       1 <0>        -0.0795
     25 C25         8.7880    6.0338    1.6192 C.3       1 <0>        -0.1203
     26 C26         6.9719    4.2276    1.5544 C.3       1 <0>        -0.0920
     27 C27         9.9095    6.7454    0.8629 C.3       1 <0>         0.1502
     28 C28         6.2906    3.1130    0.7514 C.3       1 <0>         0.0224
     29 N1          3.3921    5.9372   -1.9343 N.am      1 <0>        -0.3553
     30 N2          3.8913    7.2279   -2.1903 N.3       1 <0>        -0.4320
     31 N3          1.3958    7.7147   -0.5806 N.3       1 <0>        -0.9031
     32 N4         10.5470    7.7366    1.7233 N.3       1 <0>        -0.9068
     33 N5          4.4068    2.9859    3.7248 N.am      1 <0>        -0.5526
     34 N6          5.7762    3.5917   -0.5046 N.am      1 <0>        -0.5576
     35 O1          1.5345    4.6231   -1.5437 O.2       1 <0>        -0.6710
     36 O2          4.2060    1.9080    1.0985 O.2       1 <0>        -0.4901
     37 O3          6.3530    1.6912    3.4962 O.2       1 <0>        -0.5902
     38 O4          4.2448    5.1367    0.3286 O.2       1 <0>        -0.5833
     39 H1         -3.2382   11.1691   -2.3016 H         1 <0>         0.1320
     40 H2         -2.7620   10.1493   -0.0908 H         1 <0>         0.1324
     41 H3         -2.3582   10.1168   -4.3687 H         1 <0>         0.1328
     42 H4         -1.4106    8.0836    0.0580 H         1 <0>         0.1324
     43 H5         -1.0058    8.0510   -4.2309 H         1 <0>         0.1434
     44 H6          1.4884    3.3709    6.9793 H         1 <0>         0.0405
     45 H7          0.4207    3.3445    5.5787 H         1 <0>         0.0421
     46 H8          2.0792    4.5112    4.2065 H         1 <0>         0.0362
     47 H9          1.8152    5.4216    5.6896 H         1 <0>         0.0439
     48 H10         1.5591    1.1476    5.9648 H         1 <0>         0.0350
     49 H11         1.9187    1.8232    4.3798 H         1 <0>         0.0428
     50 H12         4.2361    5.2502    5.1146 H         1 <0>         0.0663
     51 H13         3.8643    4.5494    6.6877 H         1 <0>         0.0466
     52 H14         3.7051    1.8909    6.8597 H         1 <0>         0.0493
     53 H15         3.9788    0.9553    5.3920 H         1 <0>         0.0520
     54 H16         5.4011    5.4209   -3.8475 H         1 <0>         0.0915
     55 H17         6.5319    5.2374   -2.4876 H         1 <0>         0.0601
     56 H18         1.3705    8.9173   -2.8778 H         1 <0>         0.0688
     57 H19         1.1370    7.5576   -3.9559 H         1 <0>         0.0630
     58 H20         5.8802    7.3284   -1.5498 H         1 <0>         0.0807
     59 H21         5.7080    7.7145   -3.2631 H         1 <0>         0.0380
     60 H22         3.3395    7.2079   -4.2360 H         1 <0>         0.0484
     61 H23         3.5406    8.8134   -3.5374 H         1 <0>         0.0697
     62 H24         4.0335    4.0099   -2.5019 H         1 <0>         0.0843
     63 H25         5.3980    3.0429    5.5243 H         1 <0>         0.0831
     64 H26        -0.6181    6.0842   -1.1357 H         1 <0>         0.0704
     65 H27        -0.4536    6.0709   -2.8800 H         1 <0>         0.0718
     66 H28         7.6494    5.4516   -0.0948 H         1 <0>         0.0606
     67 H29         8.8216    4.2418    0.4157 H         1 <0>         0.0458
     68 H30         8.0356    6.7709    1.9287 H         1 <0>         0.0375
     69 H31         9.1825    5.5824    2.5383 H         1 <0>         0.0392
     70 H32         6.2171    4.9575    1.8728 H         1 <0>         0.0606
     71 H33         7.3929    3.7874    2.4660 H         1 <0>         0.0579
     72 H34         9.5108    7.2416   -0.0285 H         1 <0>         0.0571
     73 H35        10.6706    6.0303    0.5375 H         1 <0>         0.0503
     74 H36         7.0421    2.3587    0.4881 H         1 <0>         0.0993
     75 H37         2.1998    8.2929   -0.4996 H         1 <0>         0.3700
     76 H38         0.8492    7.4324    0.1998 H         1 <0>         0.3660
     77 H39        11.2163    8.3531    1.3147 H         1 <0>         0.3465
     78 H40        10.4498    7.6340    2.7108 H         1 <0>         0.3446
     79 H41         3.6788    3.4423    3.1832 H         1 <0>         0.3148
     80 H42         6.1527    3.1949   -1.3636 H         1 <0>         0.3220
@<TRIPOS>BOND
     1    1    2 ar
     2    1    3 ar
     3    2    4 ar
     4    3    5 ar
     5    4    6 ar
     6    5    6 ar
     7    6   23 1
     8    7   22 1
     9    7   29 am
    10    7   35 2
    11    8    9 1
    12    8   28 1
    13    8   36 2
    14    9   33 am
    15    9   37 2
    16   10   20 1
    17   10   34 am
    18   10   38 2
    19   11   12 1
    20   11   13 1
    21   12   14 1
    22   13   15 1
    23   14   21 1
    24   15   21 1
    25   16   18 1
    26   16   20 1
    27   17   19 1
    28   17   22 1
    29   18   30 1
    30   19   30 1
    31   20   29 1
    32   21   33 1
    33   22   23 1
    34   22   31 1
    35   24   25 1
    36   24   26 1
    37   25   27 1
    38   26   28 1
    39   27   32 1
    40   28   34 1
    41   29   30 1
    42    1   39 1
    43    2   40 1
    44    3   41 1
    45    4   42 1
    46    5   43 1
    47   11   44 1
    48   11   45 1
    49   12   46 1
    50   12   47 1
    51   13   48 1
    52   13   49 1
    53   14   50 1
    54   14   51 1
    55   15   52 1
    56   15   53 1
    57   16   54 1
    58   16   55 1
    59   17   56 1
    60   17   57 1
    61   18   58 1
    62   18   59 1
    63   19   60 1
    64   19   61 1
    65   20   62 1
    66   21   63 1
    67   23   64 1
    68   23   65 1
    69   24   66 1
    70   24   67 1
    71   25   68 1
    72   25   69 1
    73   26   70 1
    74   26   71 1
    75   27   72 1
    76   27   73 1
    77   28   74 1
    78   31   75 1
    79   31   76 1
    80   32   77 1
    81   32   78 1
    82   33   79 1
    83   34   80 1
@<TRIPOS>MOLECULE
1a46_ligand_167
   80    83     0     0     0
SMALL
USER_CHARGES

mmff94s_NoEstat = 84.49
@<TRIPOS>ATOM
      1 C1          9.0003   12.0144   -5.4225 C.ar      1 <0>        -0.1300
      2 C2          9.4537   11.5665   -4.1818 C.ar      1 <0>        -0.1323
      3 C3          7.8120   11.5127   -5.9535 C.ar      1 <0>        -0.1309
      4 C4          8.7189   10.6167   -3.4722 C.ar      1 <0>        -0.1275
      5 C5          7.0772   10.5629   -5.2439 C.ar      1 <0>        -0.1272
      6 C6          7.5355   10.1211   -4.0078 C.ar      1 <0>        -0.0843
      7 C7          6.3757    6.6257   -2.8269 C.2       1 <0>         0.6709
      8 C8          5.2358    2.3798    1.5634 C.2       1 <0>         0.4867
      9 C9          5.6457    1.7076    2.8411 C.2       1 <0>         0.5883
     10 C10         6.5256    3.6321   -1.6689 C.2       1 <0>         0.6572
     11 C11         2.8486    2.3942    6.8538 C.3       1 <0>        -0.0802
     12 C12         3.8094    3.5162    6.4691 C.3       1 <0>        -0.0765
     13 C13         2.9140    1.2269    5.8726 C.3       1 <0>        -0.0774
     14 C14         5.2382    2.9990    6.2966 C.3       1 <0>        -0.0953
     15 C15         4.3449    0.7149    5.7018 C.3       1 <0>        -0.0906
     16 C16         5.8400    3.2307   -4.0468 C.3       1 <0>        -0.0871
     17 C17         7.0291    7.4385   -5.1265 C.3       1 <0>        -0.0716
     18 C18         7.1120    3.6562   -4.7776 C.3       1 <0>         0.1333
     19 C19         6.8955    5.9616   -5.5361 C.3       1 <0>         0.1246
     20 C20         5.7868    4.1659   -2.8575 C.3       1 <0>         0.0606
     21 C21         5.3317    1.8242    5.3139 C.3       1 <0>         0.1012
     22 C22         7.1815    7.6752   -3.6055 C.3       1 <0>         0.1554
     23 C23         6.7451    9.0995   -3.2444 C.3       1 <0>        -0.0356
     24 C24         8.0800    4.9598    0.7851 C.3       1 <0>        -0.0795
     25 C25         8.7880    6.0338    1.6192 C.3       1 <0>        -0.1203
     26 C26         6.9719    4.2276    1.5544 C.3       1 <0>        -0.0920
     27 C27         9.9095    6.7454    0.8629 C.3       1 <0>         0.1502
     28 C28         6.2906    3.1130    0.7514 C.3       1 <0>         0.0224
     29 N1          6.5101    5.3360   -3.3173 N.am      1 <0>        -0.3553
     30 N2          7.3084    5.0783   -4.4472 N.3       1 <0>        -0.4320
     31 N3          8.5804    7.4980   -3.1893 N.3       1 <0>        -0.9031
     32 N4         10.5470    7.7366    1.7233 N.3       1 <0>        -0.9068
     33 N5          5.0674    2.2831    3.9484 N.am      1 <0>        -0.5526
     34 N6          5.7762    3.5917   -0.5046 N.am      1 <0>        -0.5576
     35 O1          5.6876    6.9159   -1.8485 O.2       1 <0>        -0.6710
     36 O2          4.0412    2.3628    1.2952 O.2       1 <0>        -0.4901
     37 O3          6.4307    0.7761    2.7710 O.2       1 <0>        -0.5902
     38 O4          7.6924    3.2783   -1.7917 O.2       1 <0>        -0.5833
     39 H1          9.5724   12.7539   -5.9752 H         1 <0>         0.1320
     40 H2         10.3789   11.9573   -3.7685 H         1 <0>         0.1324
     41 H3          7.4591   11.8615   -6.9197 H         1 <0>         0.1328
     42 H4          9.0800   10.2736   -2.5062 H         1 <0>         0.1324
     43 H5          6.1526   10.1776   -5.6655 H         1 <0>         0.1434
     44 H6          3.0952    2.0354    7.8608 H         1 <0>         0.0405
     45 H7          1.8251    2.7835    6.8965 H         1 <0>         0.0421
     46 H8          3.4697    3.9852    5.5378 H         1 <0>         0.0362
     47 H9          3.7921    4.2948    7.2403 H         1 <0>         0.0439
     48 H10         2.2729    0.4120    6.2280 H         1 <0>         0.0350
     49 H11         2.5148    1.5431    4.9013 H         1 <0>         0.0428
     50 H12         5.8813    3.8223    5.9625 H         1 <0>         0.0663
     51 H13         5.6180    2.6759    7.2742 H         1 <0>         0.0466
     52 H14         4.6733    0.2604    6.6452 H         1 <0>         0.0493
     53 H15         4.3549   -0.0798    4.9460 H         1 <0>         0.0520
     54 H16         4.9736    3.4114   -4.6951 H         1 <0>         0.0915
     55 H17         5.8531    2.1713   -3.7729 H         1 <0>         0.0601
     56 H18         7.8805    7.8879   -5.6555 H         1 <0>         0.0688
     57 H19         6.1391    7.9685   -5.4921 H         1 <0>         0.0630
     58 H20         7.9647    3.0932   -4.3794 H         1 <0>         0.0807
     59 H21         7.0607    3.4497   -5.8523 H         1 <0>         0.0380
     60 H22         5.8545    5.7643   -5.8276 H         1 <0>         0.0484
     61 H23         7.5124    5.7838   -6.4252 H         1 <0>         0.0697
     62 H24         4.7698    4.4250   -2.5496 H         1 <0>         0.0843
     63 H25         6.3523    1.4273    5.3051 H         1 <0>         0.0831
     64 H26         6.8700    9.2469   -2.1701 H         1 <0>         0.0704
     65 H27         5.6795    9.2080   -3.4549 H         1 <0>         0.0718
     66 H28         7.6494    5.4516   -0.0948 H         1 <0>         0.0606
     67 H29         8.8216    4.2418    0.4157 H         1 <0>         0.0458
     68 H30         8.0356    6.7709    1.9287 H         1 <0>         0.0375
     69 H31         9.1825    5.5824    2.5383 H         1 <0>         0.0392
     70 H32         6.2171    4.9575    1.8728 H         1 <0>         0.0606
     71 H33         7.3929    3.7874    2.4660 H         1 <0>         0.0579
     72 H34         9.5108    7.2416   -0.0285 H         1 <0>         0.0571
     73 H35        10.6706    6.0303    0.5375 H         1 <0>         0.0503
     74 H36         7.0421    2.3587    0.4881 H         1 <0>         0.0993
     75 H37         9.1142    6.7979   -3.6499 H         1 <0>         0.3700
     76 H38         8.8693    7.9327   -2.3437 H         1 <0>         0.3660
     77 H39        11.2163    8.3531    1.3147 H         1 <0>         0.3465
     78 H40        10.4498    7.6340    2.7108 H         1 <0>         0.3446
     79 H41         4.4287    3.0611    3.8132 H         1 <0>         0.3148
     80 H42         4.8120    3.9176   -0.5391 H         1 <0>         0.3220
@<TRIPOS>BOND
     1    1    2 ar
     2    1    3 ar
     3    2    4 ar
     4    3    5 ar
     5    4    6 ar
     6    5    6 ar
     7    6   23 1
     8    7   22 1
     9    7   29 am
    10    7   35 2
    11    8    9 1
    12    8   28 1
    13    8   36 2
    14    9   33 am
    15    9   37 2
    16   10   20 1
    17   10   34 am
    18   10   38 2
    19   11   12 1
    20   11   13 1
    21   12   14 1
    22   13   15 1
    23   14   21 1
    24   15   21 1
    25   16   18 1
    26   16   20 1
    27   17   19 1
    28   17   22 1
    29   18   30 1
    30   19   30 1
    31   20   29 1
    32   21   33 1
    33   22   23 1
    34   22   31 1
    35   24   25 1
    36   24   26 1
    37   25   27 1
    38   26   28 1
    39   27   32 1
    40   28   34 1
    41   29   30 1
    42    1   39 1
    43    2   40 1
    44    3   41 1
    45    4   42 1
    46    5   43 1
    47   11   44 1
    48   11   45 1
    49   12   46 1
    50   12   47 1
    51   13   48 1
    52   13   49 1
    53   14   50 1
    54   14   51 1
    55   15   52 1
    56   15   53 1
    57   16   54 1
    58   16   55 1
    59   17   56 1
    60   17   57 1
    61   18   58 1
    62   18   59 1
    63   19   60 1
    64   19   61 1
    65   20   62 1
    66   21   63 1
    67   23   64 1
    68   23   65 1
    69   24   66 1
    70   24   67 1
    71   25   68 1
    72   25   69 1
    73   26   70 1
    74   26   71 1
    75   27   72 1
    76   27   73 1
    77   28   74 1
    78   31   75 1
    79   31   76 1
    80   32   77 1
    81   32   78 1
    82   33   79 1
    83   34   80 1
@<TRIPOS>MOLECULE
1a46_ligand_168
   80    83     0     0     0
SMALL
USER_CHARGES

mmff94s_NoEstat = 84.51
@<TRIPOS>ATOM
      1 C1         -2.6445   10.2618   -2.2387 C.ar      1 <0>        -0.1300
      2 C2         -2.3767    9.6884   -0.9957 C.ar      1 <0>        -0.1323
      3 C3         -2.1497    9.6701   -3.4009 C.ar      1 <0>        -0.1309
      4 C4         -1.6141    8.5233   -0.9148 C.ar      1 <0>        -0.1275
      5 C5         -1.3871    8.5049   -3.3201 C.ar      1 <0>        -0.1272
      6 C6         -1.1243    7.9391   -2.0776 C.ar      1 <0>        -0.0843
      7 C7          2.0326    5.7272   -1.7627 C.2       1 <0>         0.6709
      8 C8          5.2358    2.3798    1.5634 C.2       1 <0>         0.4867
      9 C9          4.9672    2.8271    2.9706 C.2       1 <0>         0.5883
     10 C10         4.7954    4.5647   -0.6048 C.2       1 <0>         0.6572
     11 C11         6.0599   -0.3202    6.6171 C.3       1 <0>        -0.0802
     12 C12         4.7339   -0.0224    5.9220 C.3       1 <0>        -0.0765
     13 C13         7.2065    0.5001    6.0323 C.3       1 <0>        -0.0774
     14 C14         4.4205    1.4744    5.9255 C.3       1 <0>        -0.0953
     15 C15         6.8873    1.9958    6.0360 C.3       1 <0>        -0.0906
     16 C16         5.5346    5.5870   -2.7713 C.3       1 <0>        -0.0871
     17 C17         1.6625    7.8714   -3.0437 C.3       1 <0>        -0.0716
     18 C18         5.3303    7.0689   -2.4625 C.3       1 <0>         0.1333
     19 C19         3.1731    7.8019   -3.3266 C.3       1 <0>         0.1246
     20 C20         4.4137    4.9104   -2.0113 C.3       1 <0>         0.0606
     21 C21         5.5583    2.3225    5.3418 C.3       1 <0>         0.1012
     22 C22         1.1885    7.0064   -1.8522 C.3       1 <0>         0.1554
     23 C23        -0.3040    6.6858   -1.9906 C.3       1 <0>        -0.0356
     24 C24         8.0800    4.9598    0.7851 C.3       1 <0>        -0.0795
     25 C25         8.7880    6.0338    1.6192 C.3       1 <0>        -0.1203
     26 C26         6.9719    4.2276    1.5544 C.3       1 <0>        -0.0920
     27 C27         9.9095    6.7454    0.8629 C.3       1 <0>         0.1502
     28 C28         6.2906    3.1130    0.7514 C.3       1 <0>         0.0224
     29 N1          3.3921    5.9372   -1.9343 N.am      1 <0>        -0.3553
     30 N2          3.8913    7.2279   -2.1903 N.3       1 <0>        -0.4320
     31 N3          1.3958    7.7147   -0.5806 N.3       1 <0>        -0.9031
     32 N4         10.5470    7.7366    1.7233 N.3       1 <0>        -0.9068
     33 N5          5.6707    2.0960    3.8993 N.am      1 <0>        -0.5526
     34 N6          5.7762    3.5917   -0.5046 N.am      1 <0>        -0.5576
     35 O1          1.5345    4.6231   -1.5437 O.2       1 <0>        -0.6710
     36 O2          4.5176    1.4899    1.1258 O.2       1 <0>        -0.4901
     37 O3          4.1723    3.7372    3.1396 O.2       1 <0>        -0.5902
     38 O4          4.2448    5.1367    0.3286 O.2       1 <0>        -0.5833
     39 H1         -3.2382   11.1691   -2.3016 H         1 <0>         0.1320
     40 H2         -2.7620   10.1493   -0.0908 H         1 <0>         0.1324
     41 H3         -2.3582   10.1168   -4.3687 H         1 <0>         0.1328
     42 H4         -1.4106    8.0836    0.0580 H         1 <0>         0.1324
     43 H5         -1.0058    8.0510   -4.2309 H         1 <0>         0.1434
     44 H6          5.9654   -0.0993    7.6876 H         1 <0>         0.0405
     45 H7          6.2894   -1.3884    6.5318 H         1 <0>         0.0421
     46 H8          4.7714   -0.3912    4.8898 H         1 <0>         0.0362
     47 H9          3.9260   -0.5673    6.4236 H         1 <0>         0.0439
     48 H10         8.1199    0.3187    6.6102 H         1 <0>         0.0350
     49 H11         7.4088    0.1666    5.0074 H         1 <0>         0.0428
     50 H12         3.4939    1.6495    5.3655 H         1 <0>         0.0663
     51 H13         4.2326    1.7940    6.9585 H         1 <0>         0.0466
     52 H14         6.8412    2.3454    7.0753 H         1 <0>         0.0493
     53 H15         7.7083    2.5401    5.5539 H         1 <0>         0.0520
     54 H16         5.4011    5.4209   -3.8475 H         1 <0>         0.0915
     55 H17         6.5319    5.2374   -2.4876 H         1 <0>         0.0601
     56 H18         1.3705    8.9173   -2.8778 H         1 <0>         0.0688
     57 H19         1.1370    7.5576   -3.9559 H         1 <0>         0.0630
     58 H20         5.8802    7.3284   -1.5498 H         1 <0>         0.0807
     59 H21         5.7080    7.7145   -3.2631 H         1 <0>         0.0380
     60 H22         3.3395    7.2079   -4.2360 H         1 <0>         0.0484
     61 H23         3.5406    8.8134   -3.5374 H         1 <0>         0.0697
     62 H24         4.0335    4.0099   -2.5019 H         1 <0>         0.0843
     63 H25         5.3281    3.3863    5.4619 H         1 <0>         0.0831
     64 H26        -0.6181    6.0842   -1.1357 H         1 <0>         0.0704
     65 H27        -0.4536    6.0709   -2.8800 H         1 <0>         0.0718
     66 H28         7.6494    5.4516   -0.0948 H         1 <0>         0.0606
     67 H29         8.8216    4.2418    0.4157 H         1 <0>         0.0458
     68 H30         8.0356    6.7709    1.9287 H         1 <0>         0.0375
     69 H31         9.1825    5.5824    2.5383 H         1 <0>         0.0392
     70 H32         6.2171    4.9575    1.8728 H         1 <0>         0.0606
     71 H33         7.3929    3.7874    2.4660 H         1 <0>         0.0579
     72 H34         9.5108    7.2416   -0.0285 H         1 <0>         0.0571
     73 H35        10.6706    6.0303    0.5375 H         1 <0>         0.0503
     74 H36         7.0421    2.3587    0.4881 H         1 <0>         0.0993
     75 H37         2.1998    8.2929   -0.4996 H         1 <0>         0.3700
     76 H38         0.8492    7.4324    0.1998 H         1 <0>         0.3660
     77 H39        11.2163    8.3531    1.3147 H         1 <0>         0.3465
     78 H40        10.4498    7.6340    2.7108 H         1 <0>         0.3446
     79 H41         6.2961    1.3666    3.5700 H         1 <0>         0.3148
     80 H42         6.1527    3.1949   -1.3636 H         1 <0>         0.3220
@<TRIPOS>BOND
     1    1    2 ar
     2    1    3 ar
     3    2    4 ar
     4    3    5 ar
     5    4    6 ar
     6    5    6 ar
     7    6   23 1
     8    7   22 1
     9    7   29 am
    10    7   35 2
    11    8    9 1
    12    8   28 1
    13    8   36 2
    14    9   33 am
    15    9   37 2
    16   10   20 1
    17   10   34 am
    18   10   38 2
    19   11   12 1
    20   11   13 1
    21   12   14 1
    22   13   15 1
    23   14   21 1
    24   15   21 1
    25   16   18 1
    26   16   20 1
    27   17   19 1
    28   17   22 1
    29   18   30 1
    30   19   30 1
    31   20   29 1
    32   21   33 1
    33   22   23 1
    34   22   31 1
    35   24   25 1
    36   24   26 1
    37   25   27 1
    38   26   28 1
    39   27   32 1
    40   28   34 1
    41   29   30 1
    42    1   39 1
    43    2   40 1
    44    3   41 1
    45    4   42 1
    46    5   43 1
    47   11   44 1
    48   11   45 1
    49   12   46 1
    50   12   47 1
    51   13   48 1
    52   13   49 1
    53   14   50 1
    54   14   51 1
    55   15   52 1
    56   15   53 1
    57   16   54 1
    58   16   55 1
    59   17   56 1
    60   17   57 1
    61   18   58 1
    62   18   59 1
    63   19   60 1
    64   19   61 1
    65   20   62 1
    66   21   63 1
    67   23   64 1
    68   23   65 1
    69   24   66 1
    70   24   67 1
    71   25   68 1
    72   25   69 1
    73   26   70 1
    74   26   71 1
    75   27   72 1
    76   27   73 1
    77   28   74 1
    78   31   75 1
    79   31   76 1
    80   32   77 1
    81   32   78 1
    82   33   79 1
    83   34   80 1
@<TRIPOS>MOLECULE
1a46_ligand_169
   80    83     0     0     0
SMALL
USER_CHARGES

mmff94s_NoEstat = 84.55
@<TRIPOS>ATOM
      1 C1         -2.6445   10.2618   -2.2387 C.ar      1 <0>        -0.1300
      2 C2         -2.3767    9.6884   -0.9957 C.ar      1 <0>        -0.1323
      3 C3         -2.1497    9.6701   -3.4009 C.ar      1 <0>        -0.1309
      4 C4         -1.6141    8.5233   -0.9148 C.ar      1 <0>        -0.1275
      5 C5         -1.3871    8.5049   -3.3201 C.ar      1 <0>        -0.1272
      6 C6         -1.1243    7.9391   -2.0776 C.ar      1 <0>        -0.0843
      7 C7          2.0326    5.7272   -1.7627 C.2       1 <0>         0.6709
      8 C8          5.2358    2.3798    1.5634 C.2       1 <0>         0.4867
      9 C9          5.6457    1.7076    2.8411 C.2       1 <0>         0.5883
     10 C10         4.7954    4.5647   -0.6048 C.2       1 <0>         0.6572
     11 C11         7.4984   -2.8604    2.5281 C.3       1 <0>        -0.0802
     12 C12         6.0870   -2.3778    2.8521 C.3       1 <0>        -0.0765
     13 C13         8.4450   -1.6988    2.2377 C.3       1 <0>        -0.0774
     14 C14         6.0898   -1.3509    3.9853 C.3       1 <0>        -0.0953
     15 C15         8.4424   -0.6737    3.3726 C.3       1 <0>        -0.0906
     16 C16         5.5346    5.5870   -2.7713 C.3       1 <0>        -0.0871
     17 C17         1.6625    7.8714   -3.0437 C.3       1 <0>        -0.0716
     18 C18         5.3303    7.0689   -2.4625 C.3       1 <0>         0.1333
     19 C19         3.1731    7.8019   -3.3266 C.3       1 <0>         0.1246
     20 C20         4.4137    4.9104   -2.0113 C.3       1 <0>         0.0606
     21 C21         7.0342   -0.1713    3.7178 C.3       1 <0>         0.1012
     22 C22         1.1885    7.0064   -1.8522 C.3       1 <0>         0.1554
     23 C23        -0.3040    6.6858   -1.9906 C.3       1 <0>        -0.0356
     24 C24         8.0800    4.9598    0.7851 C.3       1 <0>        -0.0795
     25 C25         8.7880    6.0338    1.6192 C.3       1 <0>        -0.1203
     26 C26         6.9719    4.2276    1.5544 C.3       1 <0>        -0.0920
     27 C27         7.8523    7.1445    2.0953 C.3       1 <0>         0.1502
     28 C28         6.2906    3.1130    0.7514 C.3       1 <0>         0.0224
     29 N1          3.3921    5.9372   -1.9343 N.am      1 <0>        -0.3553
     30 N2          3.8913    7.2279   -2.1903 N.3       1 <0>        -0.4320
     31 N3          1.3958    7.7147   -0.5806 N.3       1 <0>        -0.9031
     32 N4          8.5978    8.1361    2.8636 N.3       1 <0>        -0.9068
     33 N5          6.5118    0.6599    2.6310 N.am      1 <0>        -0.5526
     34 N6          5.7762    3.5917   -0.5046 N.am      1 <0>        -0.5576
     35 O1          1.5345    4.6231   -1.5437 O.2       1 <0>        -0.6710
     36 O2          4.0412    2.3628    1.2952 O.2       1 <0>        -0.4901
     37 O3          5.1730    2.1266    3.8850 O.2       1 <0>        -0.5902
     38 O4          4.2448    5.1367    0.3286 O.2       1 <0>        -0.5833
     39 H1         -3.2382   11.1691   -2.3016 H         1 <0>         0.1320
     40 H2         -2.7620   10.1493   -0.0908 H         1 <0>         0.1324
     41 H3         -2.3582   10.1168   -4.3687 H         1 <0>         0.1328
     42 H4         -1.4106    8.0836    0.0580 H         1 <0>         0.1324
     43 H5         -1.0058    8.0510   -4.2309 H         1 <0>         0.1434
     44 H6          7.8861   -3.4409    3.3744 H         1 <0>         0.0405
     45 H7          7.4684   -3.5363    1.6660 H         1 <0>         0.0421
     46 H8          5.6358   -1.9383    1.9543 H         1 <0>         0.0362
     47 H9          5.4623   -3.2331    3.1340 H         1 <0>         0.0439
     48 H10         9.4616   -2.0812    2.0913 H         1 <0>         0.0350
     49 H11         8.1510   -1.2136    1.2991 H         1 <0>         0.0428
     50 H12         5.0674   -0.9870    4.1440 H         1 <0>         0.0663
     51 H13         6.3973   -1.8492    4.9135 H         1 <0>         0.0466
     52 H14         8.8852   -1.1330    4.2655 H         1 <0>         0.0493
     53 H15         9.0866    0.1701    3.0968 H         1 <0>         0.0520
     54 H16         5.4011    5.4209   -3.8475 H         1 <0>         0.0915
     55 H17         6.5319    5.2374   -2.4876 H         1 <0>         0.0601
     56 H18         1.3705    8.9173   -2.8778 H         1 <0>         0.0688
     57 H19         1.1370    7.5576   -3.9559 H         1 <0>         0.0630
     58 H20         5.8802    7.3284   -1.5498 H         1 <0>         0.0807
     59 H21         5.7080    7.7145   -3.2631 H         1 <0>         0.0380
     60 H22         3.3395    7.2079   -4.2360 H         1 <0>         0.0484
     61 H23         3.5406    8.8134   -3.5374 H         1 <0>         0.0697
     62 H24         4.0335    4.0099   -2.5019 H         1 <0>         0.0843
     63 H25         7.0767    0.4778    4.5987 H         1 <0>         0.0831
     64 H26        -0.6181    6.0842   -1.1357 H         1 <0>         0.0704
     65 H27        -0.4536    6.0709   -2.8800 H         1 <0>         0.0718
     66 H28         7.6494    5.4516   -0.0948 H         1 <0>         0.0606
     67 H29         8.8216    4.2418    0.4157 H         1 <0>         0.0458
     68 H30         9.2384    5.5414    2.4909 H         1 <0>         0.0375
     69 H31         9.6146    6.4624    1.0384 H         1 <0>         0.0392
     70 H32         6.2171    4.9575    1.8728 H         1 <0>         0.0606
     71 H33         7.3929    3.7874    2.4660 H         1 <0>         0.0579
     72 H34         7.0543    6.7273    2.7189 H         1 <0>         0.0571
     73 H35         7.3850    7.6478    1.2437 H         1 <0>         0.0503
     74 H36         7.0421    2.3587    0.4881 H         1 <0>         0.0993
     75 H37         2.1998    8.2929   -0.4996 H         1 <0>         0.3700
     76 H38         0.8492    7.4324    0.1998 H         1 <0>         0.3660
     77 H39         8.0840    8.8516    3.3317 H         1 <0>         0.3465
     78 H40         9.5851    8.1885    2.7309 H         1 <0>         0.3446
     79 H41         6.8020    0.4535    1.6799 H         1 <0>         0.3148
     80 H42         6.1527    3.1949   -1.3636 H         1 <0>         0.3220
@<TRIPOS>BOND
     1    1    2 ar
     2    1    3 ar
     3    2    4 ar
     4    3    5 ar
     5    4    6 ar
     6    5    6 ar
     7    6   23 1
     8    7   22 1
     9    7   29 am
    10    7   35 2
    11    8    9 1
    12    8   28 1
    13    8   36 2
    14    9   33 am
    15    9   37 2
    16   10   20 1
    17   10   34 am
    18   10   38 2
    19   11   12 1
    20   11   13 1
    21   12   14 1
    22   13   15 1
    23   14   21 1
    24   15   21 1
    25   16   18 1
    26   16   20 1
    27   17   19 1
    28   17   22 1
    29   18   30 1
    30   19   30 1
    31   20   29 1
    32   21   33 1
    33   22   23 1
    34   22   31 1
    35   24   25 1
    36   24   26 1
    37   25   27 1
    38   26   28 1
    39   27   32 1
    40   28   34 1
    41   29   30 1
    42    1   39 1
    43    2   40 1
    44    3   41 1
    45    4   42 1
    46    5   43 1
    47   11   44 1
    48   11   45 1
    49   12   46 1
    50   12   47 1
    51   13   48 1
    52   13   49 1
    53   14   50 1
    54   14   51 1
    55   15   52 1
    56   15   53 1
    57   16   54 1
    58   16   55 1
    59   17   56 1
    60   17   57 1
    61   18   58 1
    62   18   59 1
    63   19   60 1
    64   19   61 1
    65   20   62 1
    66   21   63 1
    67   23   64 1
    68   23   65 1
    69   24   66 1
    70   24   67 1
    71   25   68 1
    72   25   69 1
    73   26   70 1
    74   26   71 1
    75   27   72 1
    76   27   73 1
    77   28   74 1
    78   31   75 1
    79   31   76 1
    80   32   77 1
    81   32   78 1
    82   33   79 1
    83   34   80 1
@<TRIPOS>MOLECULE
1a46_ligand_170
   80    83     0     0     0
SMALL
USER_CHARGES

mmff94s_NoEstat = 84.56
@<TRIPOS>ATOM
      1 C1         -6.9230    5.5242    0.0960 C.ar      1 <0>        -0.1300
      2 C2         -5.5676    5.7959    0.2823 C.ar      1 <0>        -0.1323
      3 C3         -7.3195    4.5504   -0.8207 C.ar      1 <0>        -0.1309
      4 C4         -4.6088    5.0941   -0.4482 C.ar      1 <0>        -0.1275
      5 C5         -6.3607    3.8486   -1.5512 C.ar      1 <0>        -0.1272
      6 C6         -5.0116    4.1250   -1.3602 C.ar      1 <0>        -0.0843
      7 C7         -2.6002    3.3123   -4.2727 C.2       1 <0>         0.6709
      8 C8          2.7796    3.2097   -6.1637 C.2       1 <0>         0.4867
      9 C9          3.9990    3.9872   -5.7623 C.2       1 <0>         0.5883
     10 C10        -0.2772    3.6966   -6.4593 C.2       1 <0>         0.6572
     11 C11         8.7514    5.7578   -7.6316 C.3       1 <0>        -0.0802
     12 C12         8.7810    4.3461   -7.0528 C.3       1 <0>        -0.0765
     13 C13         7.6561    6.6061   -6.9916 C.3       1 <0>        -0.0774
     14 C14         7.4158    3.6675   -7.1522 C.3       1 <0>        -0.0953
     15 C15         6.2896    5.9304   -7.0917 C.3       1 <0>        -0.0906
     16 C16        -2.3224    3.5471   -7.9015 C.3       1 <0>        -0.0871
     17 C17        -4.9405    4.2595   -4.3066 C.3       1 <0>        -0.0716
     18 C18        -3.0196    4.8544   -7.5301 C.3       1 <0>         0.1333
     19 C19        -4.6999    4.4350   -5.8160 C.3       1 <0>         0.1246
     20 C20        -1.6533    3.1250   -6.6108 C.3       1 <0>         0.0606
     21 C21         6.3208    4.5176   -6.4984 C.3       1 <0>         0.1012
     22 C22        -3.6553    4.0808   -3.4645 C.3       1 <0>         0.1554
     23 C23        -3.9801    3.3700   -2.1460 C.3       1 <0>        -0.0356
     24 C24         1.4445    5.5921   -8.9731 C.3       1 <0>        -0.0795
     25 C25         1.6370    7.0835   -9.2718 C.3       1 <0>        -0.1203
     26 C26         2.1570    5.1335   -7.6933 C.3       1 <0>        -0.0920
     27 C27         0.9502    7.5360  -10.5601 C.3       1 <0>         0.1502
     28 C28         2.0196    3.6328   -7.4097 C.3       1 <0>         0.0224
     29 N1         -2.4817    3.7343   -5.5879 N.am      1 <0>        -0.3553
     30 N2         -3.3016    4.7634   -6.0871 N.3       1 <0>        -0.4320
     31 N3         -3.0521    5.3850   -3.1534 N.3       1 <0>        -0.9031
     32 N4          1.1922    8.9569  -10.7874 N.3       1 <0>        -0.9068
     33 N5          5.0202    3.8750   -6.6769 N.am      1 <0>        -0.5526
     34 N6          0.6426    3.2153   -7.3763 N.am      1 <0>        -0.5576
     35 O1         -1.9182    2.4140   -3.7798 O.2       1 <0>        -0.6710
     36 O2          2.4233    2.3196   -5.4021 O.2       1 <0>        -0.4901
     37 O3          3.9681    4.5934   -4.7038 O.2       1 <0>        -0.5902
     38 O4         -0.0579    4.5177   -5.5765 O.2       1 <0>        -0.5833
     39 H1         -7.6696    6.0707    0.6647 H         1 <0>         0.1320
     40 H2         -5.2590    6.5541    0.9960 H         1 <0>         0.1324
     41 H3         -8.3749    4.3390   -0.9657 H         1 <0>         0.1328
     42 H4         -3.5551    5.3126   -0.2965 H         1 <0>         0.1324
     43 H5         -6.6790    3.0917   -2.2632 H         1 <0>         0.1434
     44 H6          9.7248    6.2383   -7.4816 H         1 <0>         0.0405
     45 H7          8.5844    5.7039   -8.7144 H         1 <0>         0.0421
     46 H8          9.5299    3.7463   -7.5821 H         1 <0>         0.0362
     47 H9          9.0904    4.3887   -6.0012 H         1 <0>         0.0439
     48 H10         7.8990    6.7820   -5.9365 H         1 <0>         0.0350
     49 H11         7.6183    7.5872   -7.4785 H         1 <0>         0.0428
     50 H12         7.1730    3.4905   -8.2083 H         1 <0>         0.0663
     51 H13         7.4595    2.6812   -6.6746 H         1 <0>         0.0466
     52 H14         5.5396    6.5385   -6.5714 H         1 <0>         0.0493
     53 H15         5.9798    5.8886   -8.1443 H         1 <0>         0.0520
     54 H16        -3.0774    2.8030   -8.1842 H         1 <0>         0.0915
     55 H17        -1.6271    3.6703   -8.7375 H         1 <0>         0.0601
     56 H18        -5.5127    5.1168   -3.9266 H         1 <0>         0.0688
     57 H19        -5.5913    3.3849   -4.1715 H         1 <0>         0.0630
     58 H20        -2.3297    5.6917   -7.6901 H         1 <0>         0.0807
     59 H21        -3.9050    5.0413   -8.1478 H         1 <0>         0.0380
     60 H22        -4.9933    3.5117   -6.3344 H         1 <0>         0.0484
     61 H23        -5.3567    5.2300   -6.1889 H         1 <0>         0.0697
     62 H24        -1.5977    2.0405   -6.4809 H         1 <0>         0.0843
     63 H25         6.4904    4.5731   -5.4169 H         1 <0>         0.0831
     64 H26        -3.0622    3.2636   -1.5651 H         1 <0>         0.0704
     65 H27        -4.3327    2.3604   -2.3649 H         1 <0>         0.0718
     66 H28         0.3683    5.4079   -8.8774 H         1 <0>         0.0606
     67 H29         1.7918    5.0040   -9.8306 H         1 <0>         0.0458
     68 H30         1.2300    7.6523   -8.4256 H         1 <0>         0.0375
     69 H31         2.7093    7.3123   -9.3176 H         1 <0>         0.0392
     70 H32         1.7604    5.7005   -6.8419 H         1 <0>         0.0606
     71 H33         3.2243    5.3739   -7.7660 H         1 <0>         0.0579
     72 H34        -0.1287    7.3572  -10.4981 H         1 <0>         0.0571
     73 H35         1.3345    6.9786  -11.4193 H         1 <0>         0.0503
     74 H36         2.4714    3.0747   -8.2388 H         1 <0>         0.0993
     75 H37        -3.1119    6.0979   -3.8428 H         1 <0>         0.3700
     76 H38        -2.4431    5.4370   -2.3699 H         1 <0>         0.3660
     77 H39         0.7014    9.4044  -11.5317 H         1 <0>         0.3465
     78 H40         1.9755    9.3785  -10.3359 H         1 <0>         0.3446
     79 H41         4.8635    3.3209   -7.5135 H         1 <0>         0.3148
     80 H42         0.3285    2.5310   -8.0620 H         1 <0>         0.3220
@<TRIPOS>BOND
     1    1    2 ar
     2    1    3 ar
     3    2    4 ar
     4    3    5 ar
     5    4    6 ar
     6    5    6 ar
     7    6   23 1
     8    7   22 1
     9    7   29 am
    10    7   35 2
    11    8    9 1
    12    8   28 1
    13    8   36 2
    14    9   33 am
    15    9   37 2
    16   10   20 1
    17   10   34 am
    18   10   38 2
    19   11   12 1
    20   11   13 1
    21   12   14 1
    22   13   15 1
    23   14   21 1
    24   15   21 1
    25   16   18 1
    26   16   20 1
    27   17   19 1
    28   17   22 1
    29   18   30 1
    30   19   30 1
    31   20   29 1
    32   21   33 1
    33   22   23 1
    34   22   31 1
    35   24   25 1
    36   24   26 1
    37   25   27 1
    38   26   28 1
    39   27   32 1
    40   28   34 1
    41   29   30 1
    42    1   39 1
    43    2   40 1
    44    3   41 1
    45    4   42 1
    46    5   43 1
    47   11   44 1
    48   11   45 1
    49   12   46 1
    50   12   47 1
    51   13   48 1
    52   13   49 1
    53   14   50 1
    54   14   51 1
    55   15   52 1
    56   15   53 1
    57   16   54 1
    58   16   55 1
    59   17   56 1
    60   17   57 1
    61   18   58 1
    62   18   59 1
    63   19   60 1
    64   19   61 1
    65   20   62 1
    66   21   63 1
    67   23   64 1
    68   23   65 1
    69   24   66 1
    70   24   67 1
    71   25   68 1
    72   25   69 1
    73   26   70 1
    74   26   71 1
    75   27   72 1
    76   27   73 1
    77   28   74 1
    78   31   75 1
    79   31   76 1
    80   32   77 1
    81   32   78 1
    82   33   79 1
    83   34   80 1
@<TRIPOS>MOLECULE
1a46_ligand_171
   80    83     0     0     0
SMALL
USER_CHARGES

mmff94s_NoEstat = 84.56
@<TRIPOS>ATOM
      1 C1         10.9138    9.4482   -8.1015 C.ar      1 <0>        -0.1300
      2 C2         11.4397    9.2331   -6.8277 C.ar      1 <0>        -0.1323
      3 C3          9.5409    9.3301   -8.3183 C.ar      1 <0>        -0.1309
      4 C4         10.5929    8.8997   -5.7706 C.ar      1 <0>        -0.1275
      5 C5          8.6940    8.9967   -7.2613 C.ar      1 <0>        -0.1272
      6 C6          9.2255    8.7837   -5.9943 C.ar      1 <0>        -0.0843
      7 C7          7.2127    6.5340   -3.5767 C.2       1 <0>         0.6709
      8 C8          5.2358    2.3798    1.5634 C.2       1 <0>         0.4867
      9 C9          3.8230    2.3549    1.0577 C.2       1 <0>         0.5883
     10 C10         6.5648    4.1956   -1.4701 C.2       1 <0>         0.6572
     11 C11         1.4085   -1.9541    1.0568 C.3       1 <0>        -0.0802
     12 C12         2.4102   -1.7120   -0.0693 C.3       1 <0>        -0.0765
     13 C13         1.3521   -0.7805    2.0311 C.3       1 <0>        -0.0774
     14 C14         2.1398   -0.3897   -0.7884 C.3       1 <0>        -0.0953
     15 C15         1.0838    0.5396    1.3070 C.3       1 <0>        -0.0906
     16 C16         5.2894    3.4365   -3.4907 C.3       1 <0>        -0.0871
     17 C17         7.5966    6.3248   -6.0635 C.3       1 <0>        -0.0716
     18 C18         6.4415    3.0935   -4.4329 C.3       1 <0>         0.1333
     19 C19         6.8768    4.9725   -5.9219 C.3       1 <0>         0.1246
     20 C20         5.8189    4.6139   -2.6998 C.3       1 <0>         0.0606
     21 C21         2.0784    0.8075    0.1696 C.3       1 <0>         0.1012
     22 C22         8.1441    6.9065   -4.7389 C.3       1 <0>         0.1554
     23 C23         8.3146    8.4251   -4.8573 C.3       1 <0>        -0.0356
     24 C24         6.0158    5.3379    2.0114 C.3       1 <0>        -0.0795
     25 C25         6.7209    6.4716    2.7653 C.3       1 <0>        -0.1203
     26 C26         6.9719    4.2276    1.5544 C.3       1 <0>        -0.0920
     27 C27         5.7742    7.5909    3.1979 C.3       1 <0>         0.1502
     28 C28         6.2906    3.1130    0.7514 C.3       1 <0>         0.0224
     29 N1          6.7850    5.2155   -3.5990 N.am      1 <0>        -0.3553
     30 N2          7.1829    4.3503   -4.6352 N.3       1 <0>        -0.4320
     31 N3          9.4504    6.3160   -4.4124 N.3       1 <0>        -0.9031
     32 N4          4.7531    7.0666    4.0988 N.3       1 <0>        -0.9068
     33 N5          3.4082    1.0891    0.7148 N.am      1 <0>        -0.5526
     34 N6          5.7762    3.5917   -0.5046 N.am      1 <0>        -0.5576
     35 O1          6.8943    7.3404   -2.7030 O.2       1 <0>        -0.6710
     36 O2          5.4669    1.7271    2.5732 O.2       1 <0>        -0.4901
     37 O3          3.2225    3.4147    0.9857 O.2       1 <0>        -0.5902
     38 O4          7.7705    4.4014   -1.3956 O.2       1 <0>        -0.5833
     39 H1         11.5731    9.7077   -8.9246 H         1 <0>         0.1320
     40 H2         12.5087    9.3251   -6.6590 H         1 <0>         0.1324
     41 H3          9.1315    9.4975   -9.3103 H         1 <0>         0.1328
     42 H4         11.0116    8.7339   -4.7816 H         1 <0>         0.1324
     43 H5          7.6258    8.9068   -7.4396 H         1 <0>         0.1434
     44 H6          0.4123   -2.1163    0.6268 H         1 <0>         0.0405
     45 H7          1.6748   -2.8696    1.5969 H         1 <0>         0.0421
     46 H8          3.4275   -1.7101    0.3405 H         1 <0>         0.0362
     47 H9          2.3604   -2.5373   -0.7887 H         1 <0>         0.0439
     48 H10         0.5662   -0.9575    2.7741 H         1 <0>         0.0350
     49 H11         2.2989   -0.7161    2.5809 H         1 <0>         0.0428
     50 H12         2.9155   -0.2268   -1.5465 H         1 <0>         0.0663
     51 H13         1.1844   -0.4667   -1.3229 H         1 <0>         0.0466
     52 H14         0.0677    0.5160    0.8929 H         1 <0>         0.0493
     53 H15         1.1117    1.3607    2.0335 H         1 <0>         0.0520
     54 H16         4.4210    3.7522   -4.0822 H         1 <0>         0.0915
     55 H17         4.9944    2.5859   -2.8686 H         1 <0>         0.0601
     56 H18         8.4161    6.2273   -6.7886 H         1 <0>         0.0688
     57 H19         6.8879    7.0354   -6.5102 H         1 <0>         0.0630
     58 H20         7.1117    2.3782   -3.9411 H         1 <0>         0.0807
     59 H21         6.0926    2.6259   -5.3603 H         1 <0>         0.0380
     60 H22         5.7950    5.1300   -6.0337 H         1 <0>         0.0484
     61 H23         7.1882    4.3180   -6.7448 H         1 <0>         0.0697
     62 H24         5.0453    5.3316   -2.4125 H         1 <0>         0.0843
     63 H25         1.7819    1.7076   -0.3790 H         1 <0>         0.0831
     64 H26         8.7103    8.8118   -3.9164 H         1 <0>         0.0704
     65 H27         7.3333    8.8822   -4.9974 H         1 <0>         0.0718
     66 H28         5.2579    4.9142    2.6804 H         1 <0>         0.0606
     67 H29         5.4809    5.7546    1.1500 H         1 <0>         0.0458
     68 H30         7.2000    6.0392    3.6534 H         1 <0>         0.0375
     69 H31         7.5258    6.8807    2.1417 H         1 <0>         0.0392
     70 H32         7.4599    3.7926    2.4354 H         1 <0>         0.0606
     71 H33         7.7645    4.6634    0.9347 H         1 <0>         0.0579
     72 H34         5.2908    8.0386    2.3228 H         1 <0>         0.0571
     73 H35         6.3225    8.3806    3.7198 H         1 <0>         0.0503
     74 H36         7.0421    2.3587    0.4881 H         1 <0>         0.0993
     75 H37         9.5975    5.3617   -4.6467 H         1 <0>         0.3700
     76 H38        10.0459    6.8226   -3.7991 H         1 <0>         0.3660
     77 H39         4.0028    7.6695    4.3608 H         1 <0>         0.3465
     78 H40         4.9421    6.2118    4.5770 H         1 <0>         0.3446
     79 H41         4.0528    0.3153    0.8455 H         1 <0>         0.3148
     80 H42         4.7816    3.4809   -0.6931 H         1 <0>         0.3220
@<TRIPOS>BOND
     1    1    2 ar
     2    1    3 ar
     3    2    4 ar
     4    3    5 ar
     5    4    6 ar
     6    5    6 ar
     7    6   23 1
     8    7   22 1
     9    7   29 am
    10    7   35 2
    11    8    9 1
    12    8   28 1
    13    8   36 2
    14    9   33 am
    15    9   37 2
    16   10   20 1
    17   10   34 am
    18   10   38 2
    19   11   12 1
    20   11   13 1
    21   12   14 1
    22   13   15 1
    23   14   21 1
    24   15   21 1
    25   16   18 1
    26   16   20 1
    27   17   19 1
    28   17   22 1
    29   18   30 1
    30   19   30 1
    31   20   29 1
    32   21   33 1
    33   22   23 1
    34   22   31 1
    35   24   25 1
    36   24   26 1
    37   25   27 1
    38   26   28 1
    39   27   32 1
    40   28   34 1
    41   29   30 1
    42    1   39 1
    43    2   40 1
    44    3   41 1
    45    4   42 1
    46    5   43 1
    47   11   44 1
    48   11   45 1
    49   12   46 1
    50   12   47 1
    51   13   48 1
    52   13   49 1
    53   14   50 1
    54   14   51 1
    55   15   52 1
    56   15   53 1
    57   16   54 1
    58   16   55 1
    59   17   56 1
    60   17   57 1
    61   18   58 1
    62   18   59 1
    63   19   60 1
    64   19   61 1
    65   20   62 1
    66   21   63 1
    67   23   64 1
    68   23   65 1
    69   24   66 1
    70   24   67 1
    71   25   68 1
    72   25   69 1
    73   26   70 1
    74   26   71 1
    75   27   72 1
    76   27   73 1
    77   28   74 1
    78   31   75 1
    79   31   76 1
    80   32   77 1
    81   32   78 1
    82   33   79 1
    83   34   80 1
@<TRIPOS>MOLECULE
1a46_ligand_172
   80    83     0     0     0
SMALL
USER_CHARGES

mmff94s_NoEstat = 84.62
@<TRIPOS>ATOM
      1 C1          9.3778    1.4071  -10.5376 C.ar      1 <0>        -0.1300
      2 C2         10.0902    1.0682   -9.3873 C.ar      1 <0>        -0.1323
      3 C3          8.4252    2.4251  -10.4935 C.ar      1 <0>        -0.1309
      4 C4          9.8499    1.7472   -8.1928 C.ar      1 <0>        -0.1275
      5 C5          8.1849    3.1040   -9.2989 C.ar      1 <0>        -0.1272
      6 C6          8.8988    2.7607   -8.1564 C.ar      1 <0>        -0.0843
      7 C7          7.2708    3.5496   -4.7381 C.2       1 <0>         0.6709
      8 C8          5.2358    2.3798    1.5634 C.2       1 <0>         0.4867
      9 C9          4.9672    2.8271    2.9706 C.2       1 <0>         0.5883
     10 C10         6.2126    3.1256   -1.7338 C.2       1 <0>         0.6572
     11 C11         6.0599   -0.3202    6.6171 C.3       1 <0>        -0.0802
     12 C12         4.7339   -0.0224    5.9220 C.3       1 <0>        -0.0765
     13 C13         7.2065    0.5001    6.0323 C.3       1 <0>        -0.0774
     14 C14         4.4205    1.4744    5.9255 C.3       1 <0>        -0.0953
     15 C15         6.8873    1.9958    6.0360 C.3       1 <0>        -0.0906
     16 C16         4.0677    3.4116   -2.9998 C.3       1 <0>        -0.0871
     17 C17         6.2374    2.7118   -6.8841 C.3       1 <0>        -0.0716
     18 C18         4.0600    2.1270   -3.8260 C.3       1 <0>         0.1333
     19 C19         4.9528    2.5709   -6.0494 C.3       1 <0>         0.1246
     20 C20         5.5372    3.7637   -2.9085 C.3       1 <0>         0.0606
     21 C21         5.5583    2.3225    5.3418 C.3       1 <0>         0.1012
     22 C22         7.5393    2.8062   -6.0542 C.3       1 <0>         0.1554
     23 C23         8.6404    3.4910   -6.8715 C.3       1 <0>        -0.0356
     24 C24         8.0800    4.9598    0.7851 C.3       1 <0>        -0.0795
     25 C25         8.7880    6.0338    1.6192 C.3       1 <0>        -0.1203
     26 C26         6.9719    4.2276    1.5544 C.3       1 <0>        -0.0920
     27 C27         9.9095    6.7454    0.8629 C.3       1 <0>         0.1502
     28 C28         6.2906    3.1130    0.7514 C.3       1 <0>         0.0224
     29 N1          6.1017    3.1624   -4.1017 N.am      1 <0>        -0.3553
     30 N2          5.2634    2.1873   -4.6736 N.3       1 <0>        -0.4320
     31 N3          8.0097    1.4670   -5.6708 N.3       1 <0>        -0.9031
     32 N4         10.5470    7.7366    1.7233 N.3       1 <0>        -0.9068
     33 N5          5.6707    2.0960    3.8993 N.am      1 <0>        -0.5526
     34 N6          5.7762    3.5917   -0.5046 N.am      1 <0>        -0.5576
     35 O1          8.0408    4.4006   -4.2931 O.2       1 <0>        -0.6710
     36 O2          4.5176    1.4899    1.1258 O.2       1 <0>        -0.4901
     37 O3          4.1723    3.7372    3.1396 O.2       1 <0>        -0.5902
     38 O4          7.0689    2.2691   -1.9210 O.2       1 <0>        -0.5833
     39 H1          9.5648    0.8784  -11.4677 H         1 <0>         0.1320
     40 H2         10.8319    0.2756   -9.4218 H         1 <0>         0.1324
     41 H3          7.8704    2.6887  -11.3892 H         1 <0>         0.1328
     42 H4         10.4098    1.4763   -7.3016 H         1 <0>         0.1324
     43 H5          7.4407    3.8957   -9.2740 H         1 <0>         0.1434
     44 H6          5.9654   -0.0993    7.6876 H         1 <0>         0.0405
     45 H7          6.2894   -1.3884    6.5318 H         1 <0>         0.0421
     46 H8          4.7714   -0.3912    4.8898 H         1 <0>         0.0362
     47 H9          3.9260   -0.5673    6.4236 H         1 <0>         0.0439
     48 H10         8.1199    0.3187    6.6102 H         1 <0>         0.0350
     49 H11         7.4088    0.1666    5.0074 H         1 <0>         0.0428
     50 H12         3.4939    1.6495    5.3655 H         1 <0>         0.0663
     51 H13         4.2326    1.7940    6.9585 H         1 <0>         0.0466
     52 H14         6.8412    2.3454    7.0753 H         1 <0>         0.0493
     53 H15         7.7083    2.5401    5.5539 H         1 <0>         0.0520
     54 H16         3.5352    4.1976   -3.5496 H         1 <0>         0.0915
     55 H17         3.5853    3.2820   -2.0262 H         1 <0>         0.0601
     56 H18         6.3096    1.8704   -7.5867 H         1 <0>         0.0688
     57 H19         6.1343    3.6107   -7.5070 H         1 <0>         0.0630
     58 H20         4.1583    1.2642   -3.1562 H         1 <0>         0.0807
     59 H21         3.1259    1.9993   -4.3842 H         1 <0>         0.0380
     60 H22         4.4028    3.5219   -6.0765 H         1 <0>         0.0484
     61 H23         4.3072    1.8183   -6.5178 H         1 <0>         0.0697
     62 H24         5.7284    4.8402   -2.8795 H         1 <0>         0.0843
     63 H25         5.3281    3.3863    5.4619 H         1 <0>         0.0831
     64 H26         9.5506    3.5379   -6.2709 H         1 <0>         0.0704
     65 H27         8.3431    4.5219   -7.0731 H         1 <0>         0.0718
     66 H28         7.6494    5.4516   -0.0948 H         1 <0>         0.0606
     67 H29         8.8216    4.2418    0.4157 H         1 <0>         0.0458
     68 H30         8.0356    6.7709    1.9287 H         1 <0>         0.0375
     69 H31         9.1825    5.5824    2.5383 H         1 <0>         0.0392
     70 H32         6.2171    4.9575    1.8728 H         1 <0>         0.0606
     71 H33         7.3929    3.7874    2.4660 H         1 <0>         0.0579
     72 H34         9.5108    7.2416   -0.0285 H         1 <0>         0.0571
     73 H35        10.6706    6.0303    0.5375 H         1 <0>         0.0503
     74 H36         7.0421    2.3587    0.4881 H         1 <0>         0.0993
     75 H37         7.3242    0.7786   -5.4626 H         1 <0>         0.3700
     76 H38         8.9706    1.3637   -5.4396 H         1 <0>         0.3660
     77 H39        11.2163    8.3531    1.3147 H         1 <0>         0.3465
     78 H40        10.4498    7.6340    2.7108 H         1 <0>         0.3446
     79 H41         6.2961    1.3666    3.5700 H         1 <0>         0.3148
     80 H42         5.0545    4.3100   -0.4888 H         1 <0>         0.3220
@<TRIPOS>BOND
     1    1    2 ar
     2    1    3 ar
     3    2    4 ar
     4    3    5 ar
     5    4    6 ar
     6    5    6 ar
     7    6   23 1
     8    7   22 1
     9    7   29 am
    10    7   35 2
    11    8    9 1
    12    8   28 1
    13    8   36 2
    14    9   33 am
    15    9   37 2
    16   10   20 1
    17   10   34 am
    18   10   38 2
    19   11   12 1
    20   11   13 1
    21   12   14 1
    22   13   15 1
    23   14   21 1
    24   15   21 1
    25   16   18 1
    26   16   20 1
    27   17   19 1
    28   17   22 1
    29   18   30 1
    30   19   30 1
    31   20   29 1
    32   21   33 1
    33   22   23 1
    34   22   31 1
    35   24   25 1
    36   24   26 1
    37   25   27 1
    38   26   28 1
    39   27   32 1
    40   28   34 1
    41   29   30 1
    42    1   39 1
    43    2   40 1
    44    3   41 1
    45    4   42 1
    46    5   43 1
    47   11   44 1
    48   11   45 1
    49   12   46 1
    50   12   47 1
    51   13   48 1
    52   13   49 1
    53   14   50 1
    54   14   51 1
    55   15   52 1
    56   15   53 1
    57   16   54 1
    58   16   55 1
    59   17   56 1
    60   17   57 1
    61   18   58 1
    62   18   59 1
    63   19   60 1
    64   19   61 1
    65   20   62 1
    66   21   63 1
    67   23   64 1
    68   23   65 1
    69   24   66 1
    70   24   67 1
    71   25   68 1
    72   25   69 1
    73   26   70 1
    74   26   71 1
    75   27   72 1
    76   27   73 1
    77   28   74 1
    78   31   75 1
    79   31   76 1
    80   32   77 1
    81   32   78 1
    82   33   79 1
    83   34   80 1
@<TRIPOS>MOLECULE
1a46_ligand_173
   80    83     0     0     0
SMALL
USER_CHARGES

mmff94s_NoEstat = 84.62
@<TRIPOS>ATOM
      1 C1         11.0121    9.2104   -7.9325 C.ar      1 <0>        -0.1300
      2 C2         11.5385    8.8832   -6.6829 C.ar      1 <0>        -0.1323
      3 C3          9.6345    9.1559   -8.1449 C.ar      1 <0>        -0.1309
      4 C4         10.6874    8.5015   -5.6458 C.ar      1 <0>        -0.1275
      5 C5          8.7834    8.7742   -7.1078 C.ar      1 <0>        -0.1272
      6 C6          9.3154    8.4495   -5.8650 C.ar      1 <0>        -0.0843
      7 C7          7.2411    6.0968   -3.6024 C.2       1 <0>         0.6709
      8 C8          5.2358    2.3798    1.5634 C.2       1 <0>         0.4867
      9 C9          5.3950    2.3039    3.0538 C.2       1 <0>         0.5883
     10 C10         6.5256    3.6321   -1.6689 C.2       1 <0>         0.6572
     11 C11         9.8151    1.0691    4.8799 C.3       1 <0>        -0.0802
     12 C12         8.9381   -0.0596    4.3444 C.3       1 <0>        -0.0765
     13 C13         9.1469    2.4326    4.7241 C.3       1 <0>        -0.0774
     14 C14         7.5441   -0.0356    4.9728 C.3       1 <0>        -0.0953
     15 C15         7.7525    2.4508    5.3519 C.3       1 <0>        -0.0906
     16 C16         5.2113    3.0694   -3.7284 C.3       1 <0>        -0.0871
     17 C17         7.6012    6.0599   -6.1012 C.3       1 <0>        -0.0716
     18 C18         6.3446    2.7580   -4.7039 C.3       1 <0>         0.1333
     19 C19         6.8355    4.7264   -6.0536 C.3       1 <0>         0.1246
     20 C20         5.7868    4.1659   -2.8575 C.3       1 <0>         0.0606
     21 C21         6.8497    1.3253    4.8295 C.3       1 <0>         0.1012
     22 C22         8.1773    6.5224   -4.7422 C.3       1 <0>         0.1554
     23 C23         8.4000    8.0389   -4.7494 C.3       1 <0>        -0.0356
     24 C24         6.0158    5.3379    2.0114 C.3       1 <0>        -0.0795
     25 C25         6.7209    6.4716    2.7653 C.3       1 <0>        -0.1203
     26 C26         6.9719    4.2276    1.5544 C.3       1 <0>        -0.0920
     27 C27         7.4119    6.0077    4.0472 C.3       1 <0>         0.1502
     28 C28         6.2906    3.1130    0.7514 C.3       1 <0>         0.0224
     29 N1          6.7674    4.7991   -3.7183 N.am      1 <0>        -0.3553
     30 N2          7.1280    4.0001   -4.8193 N.3       1 <0>        -0.4320
     31 N3          9.4643    5.8648   -4.4722 N.3       1 <0>        -0.9031
     32 N4          8.0424    7.1400    4.7175 N.3       1 <0>        -0.9068
     33 N5          6.4949    1.5685    3.4295 N.am      1 <0>        -0.5526
     34 N6          5.7762    3.5917   -0.5046 N.am      1 <0>        -0.5576
     35 O1          6.9567    6.8465   -2.6685 O.2       1 <0>        -0.6710
     36 O2          4.2060    1.9080    1.0985 O.2       1 <0>        -0.4901
     37 O3          4.5583    2.8586    3.7473 O.2       1 <0>        -0.5902
     38 O4          7.6924    3.2783   -1.7917 O.2       1 <0>        -0.5833
     39 H1         11.6747    9.5075   -8.7400 H         1 <0>         0.1320
     40 H2         12.6111    8.9257   -6.5176 H         1 <0>         0.1324
     41 H3          9.2248    9.4105   -9.1180 H         1 <0>         0.1328
     42 H4         11.1066    8.2484   -4.6756 H         1 <0>         0.1324
     43 H5          7.7115    8.7346   -7.2826 H         1 <0>         0.1434
     44 H6         10.0291    0.8896    5.9408 H         1 <0>         0.0405
     45 H7         10.7780    1.0682    4.3566 H         1 <0>         0.0421
     46 H8          8.8552    0.0275    3.2543 H         1 <0>         0.0362
     47 H9          9.4160   -1.0245    4.5493 H         1 <0>         0.0439
     48 H10         9.7701    3.2027    5.1927 H         1 <0>         0.0350
     49 H11         9.0775    2.6860    3.6593 H         1 <0>         0.0428
     50 H12         6.9302   -0.8221    4.5174 H         1 <0>         0.0663
     51 H13         7.6325   -0.2791    6.0392 H         1 <0>         0.0466
     52 H14         7.8529    2.3503    6.4402 H         1 <0>         0.0493
     53 H15         7.2863    3.4257    5.1647 H         1 <0>         0.0520
     54 H16         4.3507    3.4578   -4.2870 H         1 <0>         0.0915
     55 H17         4.8908    2.1856   -3.1683 H         1 <0>         0.0601
     56 H18         8.4120    5.9885   -6.8390 H         1 <0>         0.0688
     57 H19         6.9149    6.8257   -6.4876 H         1 <0>         0.0630
     58 H20         6.9926    1.9855   -4.2725 H         1 <0>         0.0807
     59 H21         5.9735    2.3729   -5.6602 H         1 <0>         0.0380
     60 H22         5.7592    4.9288   -6.1435 H         1 <0>         0.0484
     61 H23         7.1185    4.1245   -6.9255 H         1 <0>         0.0697
     62 H24         5.0406    4.8864   -2.5107 H         1 <0>         0.0843
     63 H25         5.9045    1.3202    5.3824 H         1 <0>         0.0831
     64 H26         8.8151    8.3408   -3.7861 H         1 <0>         0.0704
     65 H27         7.4343    8.5386   -4.8464 H         1 <0>         0.0718
     66 H28         5.2579    4.9142    2.6804 H         1 <0>         0.0606
     67 H29         5.4809    5.7546    1.1500 H         1 <0>         0.0458
     68 H30         7.4668    6.9122    2.0910 H         1 <0>         0.0375
     69 H31         5.9973    7.2642    2.9945 H         1 <0>         0.0392
     70 H32         7.4599    3.7926    2.4354 H         1 <0>         0.0606
     71 H33         7.7645    4.6634    0.9347 H         1 <0>         0.0579
     72 H34         8.1719    5.2532    3.8170 H         1 <0>         0.0571
     73 H35         6.6895    5.5581    4.7347 H         1 <0>         0.0503
     74 H36         7.0421    2.3587    0.4881 H         1 <0>         0.0993
     75 H37         9.5764    4.9261   -4.7778 H         1 <0>         0.3700
     76 H38        10.0811    6.3037   -3.8286 H         1 <0>         0.3660
     77 H39         8.6273    6.9547    5.5039 H         1 <0>         0.3465
     78 H40         7.7128    8.0567    4.5024 H         1 <0>         0.3446
     79 H41         7.0876    1.1766    2.7037 H         1 <0>         0.3148
     80 H42         4.8120    3.9176   -0.5391 H         1 <0>         0.3220
@<TRIPOS>BOND
     1    1    2 ar
     2    1    3 ar
     3    2    4 ar
     4    3    5 ar
     5    4    6 ar
     6    5    6 ar
     7    6   23 1
     8    7   22 1
     9    7   29 am
    10    7   35 2
    11    8    9 1
    12    8   28 1
    13    8   36 2
    14    9   33 am
    15    9   37 2
    16   10   20 1
    17   10   34 am
    18   10   38 2
    19   11   12 1
    20   11   13 1
    21   12   14 1
    22   13   15 1
    23   14   21 1
    24   15   21 1
    25   16   18 1
    26   16   20 1
    27   17   19 1
    28   17   22 1
    29   18   30 1
    30   19   30 1
    31   20   29 1
    32   21   33 1
    33   22   23 1
    34   22   31 1
    35   24   25 1
    36   24   26 1
    37   25   27 1
    38   26   28 1
    39   27   32 1
    40   28   34 1
    41   29   30 1
    42    1   39 1
    43    2   40 1
    44    3   41 1
    45    4   42 1
    46    5   43 1
    47   11   44 1
    48   11   45 1
    49   12   46 1
    50   12   47 1
    51   13   48 1
    52   13   49 1
    53   14   50 1
    54   14   51 1
    55   15   52 1
    56   15   53 1
    57   16   54 1
    58   16   55 1
    59   17   56 1
    60   17   57 1
    61   18   58 1
    62   18   59 1
    63   19   60 1
    64   19   61 1
    65   20   62 1
    66   21   63 1
    67   23   64 1
    68   23   65 1
    69   24   66 1
    70   24   67 1
    71   25   68 1
    72   25   69 1
    73   26   70 1
    74   26   71 1
    75   27   72 1
    76   27   73 1
    77   28   74 1
    78   31   75 1
    79   31   76 1
    80   32   77 1
    81   32   78 1
    82   33   79 1
    83   34   80 1
@<TRIPOS>MOLECULE
1a46_ligand_174
   80    83     0     0     0
SMALL
USER_CHARGES

mmff94s_NoEstat = 84.63
@<TRIPOS>ATOM
      1 C1         -6.8775    5.0901  -14.7309 C.ar      1 <0>        -0.1300
      2 C2         -5.5917    5.6294  -14.7709 C.ar      1 <0>        -0.1323
      3 C3         -7.3842    4.5832  -13.5342 C.ar      1 <0>        -0.1309
      4 C4         -4.8126    5.6616  -13.6144 C.ar      1 <0>        -0.1275
      5 C5         -6.6051    4.6154  -12.3777 C.ar      1 <0>        -0.1272
      6 C6         -5.3244    5.1544  -12.4253 C.ar      1 <0>        -0.0843
      7 C7         -2.7863    3.9453   -9.7694 C.2       1 <0>         0.6709
      8 C8          2.7796    3.2097   -6.1637 C.2       1 <0>         0.4867
      9 C9          4.2189    2.8058   -6.2975 C.2       1 <0>         0.5883
     10 C10        -0.0591    2.8141   -8.5012 C.2       1 <0>         0.6572
     11 C11         9.2573    4.7069   -5.8336 C.3       1 <0>        -0.0802
     12 C12         8.6163    4.9290   -7.2006 C.3       1 <0>        -0.0765
     13 C13         8.6852    3.4756   -5.1367 C.3       1 <0>        -0.0774
     14 C14         7.0930    4.9958   -7.1046 C.3       1 <0>        -0.0953
     15 C15         7.1621    3.5412   -5.0378 C.3       1 <0>        -0.0906
     16 C16        -1.6498    0.9246   -8.0710 C.3       1 <0>        -0.0871
     17 C17        -4.5618    2.6685  -11.0314 C.3       1 <0>        -0.0716
     18 C18        -1.8952    0.4385   -9.4981 C.3       1 <0>         0.1333
     19 C19        -3.9477    1.4257  -10.3641 C.3       1 <0>         0.1246
     20 C20        -1.4789    2.4202   -8.2321 C.3       1 <0>         0.0606
     21 C21         6.5220    3.7522   -6.4143 C.3       1 <0>         0.1012
     22 C22        -3.6459    3.9150  -11.0410 C.3       1 <0>         0.1554
     23 C23        -4.4863    5.1891  -11.1812 C.3       1 <0>        -0.0356
     24 C24         1.4445    5.5921   -8.9731 C.3       1 <0>        -0.0795
     25 C25         1.6370    7.0835   -9.2718 C.3       1 <0>        -0.1203
     26 C26         2.1570    5.1335   -7.6933 C.3       1 <0>        -0.0920
     27 C27         0.9502    7.5360  -10.5601 C.3       1 <0>         0.1502
     28 C28         2.0196    3.6328   -7.4097 C.3       1 <0>         0.0224
     29 N1         -2.2374    2.7178   -9.4321 N.am      1 <0>        -0.3553
     30 N2         -2.5018    1.5760  -10.2111 N.3       1 <0>        -0.4320
     31 N3         -2.6997    3.8562  -12.1647 N.3       1 <0>        -0.9031
     32 N4          1.1922    8.9569  -10.7874 N.3       1 <0>        -0.9068
     33 N5          5.0731    3.8835   -6.2736 N.am      1 <0>        -0.5526
     34 N6          0.6426    3.2153   -7.3763 N.am      1 <0>        -0.5576
     35 O1         -2.5986    4.9773   -9.1254 O.2       1 <0>        -0.6710
     36 O2          2.3266    3.2509   -5.0269 O.2       1 <0>        -0.4901
     37 O3          4.4699    1.6191   -6.4296 O.2       1 <0>        -0.5902
     38 O4          0.3766    2.7593   -9.6452 O.2       1 <0>        -0.5833
     39 H1         -7.4841    5.0650  -15.6314 H         1 <0>         0.1320
     40 H2         -5.1973    6.0241  -15.7027 H         1 <0>         0.1324
     41 H3         -8.3853    4.1632  -13.5032 H         1 <0>         0.1328
     42 H4         -3.8120    6.0837  -13.6551 H         1 <0>         0.1324
     43 H5         -7.0082    4.2181  -11.4499 H         1 <0>         0.1434
     44 H6         10.3413    4.5952   -5.9483 H         1 <0>         0.0405
     45 H7          9.0911    5.5908   -5.2056 H         1 <0>         0.0421
     46 H8          8.9988    5.8570   -7.6405 H         1 <0>         0.0362
     47 H9          8.9030    4.1132   -7.8755 H         1 <0>         0.0439
     48 H10         8.9758    2.5740   -5.6898 H         1 <0>         0.0350
     49 H11         9.1159    3.3871   -4.1329 H         1 <0>         0.0428
     50 H12         6.8020    5.8988   -6.5518 H         1 <0>         0.0663
     51 H13         6.6651    5.0961   -8.1095 H         1 <0>         0.0466
     52 H14         6.7827    2.6164   -4.5863 H         1 <0>         0.0493
     53 H15         6.8754    4.3573   -4.3615 H         1 <0>         0.0520
     54 H16        -2.5391    0.7200   -7.4620 H         1 <0>         0.0915
     55 H17        -0.7905    0.4314   -7.6064 H         1 <0>         0.0601
     56 H18        -4.8571    2.4214  -12.0603 H         1 <0>         0.0688
     57 H19        -5.4956    2.9043  -10.5031 H         1 <0>         0.0630
     58 H20        -0.9338    0.2117   -9.9745 H         1 <0>         0.0807
     59 H21        -2.4949   -0.4779   -9.5259 H         1 <0>         0.0380
     60 H22        -4.4307    1.2677   -9.3899 H         1 <0>         0.0484
     61 H23        -4.1761    0.5456  -10.9773 H         1 <0>         0.0697
     62 H24        -1.8462    2.9971   -7.3786 H         1 <0>         0.0843
     63 H25         6.6911    2.8692   -7.0414 H         1 <0>         0.0831
     64 H26        -3.8200    6.0535  -11.1955 H         1 <0>         0.0704
     65 H27        -5.1199    5.2949  -10.2986 H         1 <0>         0.0718
     66 H28         0.3683    5.4079   -8.8774 H         1 <0>         0.0606
     67 H29         1.7918    5.0040   -9.8306 H         1 <0>         0.0458
     68 H30         1.2300    7.6523   -8.4256 H         1 <0>         0.0375
     69 H31         2.7093    7.3123   -9.3176 H         1 <0>         0.0392
     70 H32         1.7604    5.7005   -6.8419 H         1 <0>         0.0606
     71 H33         3.2243    5.3739   -7.7660 H         1 <0>         0.0579
     72 H34        -0.1287    7.3572  -10.4981 H         1 <0>         0.0571
     73 H35         1.3345    6.9786  -11.4193 H         1 <0>         0.0503
     74 H36         2.4714    3.0747   -8.2388 H         1 <0>         0.0993
     75 H37        -2.3461    2.9648  -12.4248 H         1 <0>         0.3700
     76 H38        -2.3015    4.7109  -12.4784 H         1 <0>         0.3660
     77 H39         0.7014    9.4044  -11.5317 H         1 <0>         0.3465
     78 H40         1.9755    9.3785  -10.3359 H         1 <0>         0.3446
     79 H41         4.6795    4.8120   -6.1527 H         1 <0>         0.3148
     80 H42         0.1596    3.2148   -6.4798 H         1 <0>         0.3220
@<TRIPOS>BOND
     1    1    2 ar
     2    1    3 ar
     3    2    4 ar
     4    3    5 ar
     5    4    6 ar
     6    5    6 ar
     7    6   23 1
     8    7   22 1
     9    7   29 am
    10    7   35 2
    11    8    9 1
    12    8   28 1
    13    8   36 2
    14    9   33 am
    15    9   37 2
    16   10   20 1
    17   10   34 am
    18   10   38 2
    19   11   12 1
    20   11   13 1
    21   12   14 1
    22   13   15 1
    23   14   21 1
    24   15   21 1
    25   16   18 1
    26   16   20 1
    27   17   19 1
    28   17   22 1
    29   18   30 1
    30   19   30 1
    31   20   29 1
    32   21   33 1
    33   22   23 1
    34   22   31 1
    35   24   25 1
    36   24   26 1
    37   25   27 1
    38   26   28 1
    39   27   32 1
    40   28   34 1
    41   29   30 1
    42    1   39 1
    43    2   40 1
    44    3   41 1
    45    4   42 1
    46    5   43 1
    47   11   44 1
    48   11   45 1
    49   12   46 1
    50   12   47 1
    51   13   48 1
    52   13   49 1
    53   14   50 1
    54   14   51 1
    55   15   52 1
    56   15   53 1
    57   16   54 1
    58   16   55 1
    59   17   56 1
    60   17   57 1
    61   18   58 1
    62   18   59 1
    63   19   60 1
    64   19   61 1
    65   20   62 1
    66   21   63 1
    67   23   64 1
    68   23   65 1
    69   24   66 1
    70   24   67 1
    71   25   68 1
    72   25   69 1
    73   26   70 1
    74   26   71 1
    75   27   72 1
    76   27   73 1
    77   28   74 1
    78   31   75 1
    79   31   76 1
    80   32   77 1
    81   32   78 1
    82   33   79 1
    83   34   80 1
@<TRIPOS>MOLECULE
1a46_ligand_175
   80    83     0     0     0
SMALL
USER_CHARGES

mmff94s_NoEstat = 84.64
@<TRIPOS>ATOM
      1 C1          5.9504   -1.3642  -10.1903 C.ar      1 <0>        -0.1300
      2 C2          6.6765   -1.8241   -9.0918 C.ar      1 <0>        -0.1323
      3 C3          5.5463   -0.0305  -10.2504 C.ar      1 <0>        -0.1309
      4 C4          6.9984   -0.9504   -8.0532 C.ar      1 <0>        -0.1275
      5 C5          5.8681    0.8432   -9.2119 C.ar      1 <0>        -0.1272
      6 C6          6.5921    0.3776   -8.1201 C.ar      1 <0>        -0.0843
      7 C7          6.1974    2.2868   -4.7798 C.2       1 <0>         0.6709
      8 C8          5.2358    2.3798    1.5634 C.2       1 <0>         0.4867
      9 C9          5.6522    1.1980    2.3894 C.2       1 <0>         0.5883
     10 C10         5.7098    2.8119   -1.6475 C.2       1 <0>         0.6572
     11 C11         2.1315   -1.7630    4.1879 C.3       1 <0>        -0.0802
     12 C12         2.3788   -0.4451    4.9173 C.3       1 <0>        -0.0765
     13 C13         3.0395   -1.9195    2.9710 C.3       1 <0>        -0.0774
     14 C14         3.8535   -0.2727    5.2836 C.3       1 <0>        -0.0953
     15 C15         4.5128   -1.7440    3.3420 C.3       1 <0>        -0.0906
     16 C16         3.6723    3.8570   -2.6681 C.3       1 <0>        -0.0871
     17 C17         4.4858    1.7161   -6.5463 C.3       1 <0>        -0.0716
     18 C18         2.9535    2.6133   -3.1875 C.3       1 <0>         0.1333
     19 C19         3.4659    2.2898   -5.5476 C.3       1 <0>         0.1246
     20 C20         5.1372    3.5153   -2.8394 C.3       1 <0>         0.0606
     21 C21         4.7887   -0.4252    4.0765 C.3       1 <0>         0.1012
     22 C22         5.8481    1.3265   -5.9256 C.3       1 <0>         0.1554
     23 C23         6.9383    1.3175   -7.0029 C.3       1 <0>        -0.0356
     24 C24         6.0158    5.3379    2.0114 C.3       1 <0>        -0.0795
     25 C25         6.7209    6.4716    2.7653 C.3       1 <0>        -0.1203
     26 C26         6.9719    4.2276    1.5544 C.3       1 <0>        -0.0920
     27 C27         5.7742    7.5909    3.1979 C.3       1 <0>         0.1502
     28 C28         6.2906    3.1130    0.7514 C.3       1 <0>         0.0224
     29 N1          5.1345    2.5635   -3.9339 N.am      1 <0>        -0.3553
     30 N2          3.8653    2.0037   -4.1710 N.3       1 <0>        -0.4320
     31 N3          5.7803   -0.0123   -5.3216 N.3       1 <0>        -0.9031
     32 N4          4.7531    7.0666    4.0988 N.3       1 <0>        -0.9068
     33 N5          4.6259    0.7077    3.1628 N.am      1 <0>        -0.5526
     34 N6          5.7762    3.5917   -0.5046 N.am      1 <0>        -0.5576
     35 O1          7.3278    2.7504   -4.6301 O.2       1 <0>        -0.6710
     36 O2          4.0675    2.7325    1.6631 O.2       1 <0>        -0.4901
     37 O3          6.8111    0.8244    2.3100 O.2       1 <0>        -0.5902
     38 O4          6.0670    1.6440   -1.7490 O.2       1 <0>        -0.5833
     39 H1          5.6997   -2.0446  -10.9989 H         1 <0>         0.1320
     40 H2          6.9911   -2.8626   -9.0451 H         1 <0>         0.1324
     41 H3          4.9808    0.3274  -11.1059 H         1 <0>         0.1328
     42 H4          7.5644   -1.3176   -7.2012 H         1 <0>         0.1324
     43 H5          5.5489    1.8806   -9.2673 H         1 <0>         0.1434
     44 H6          2.3044   -2.5975    4.8787 H         1 <0>         0.0405
     45 H7          1.0827   -1.8207    3.8755 H         1 <0>         0.0421
     46 H8          2.0536    0.3896    4.2846 H         1 <0>         0.0362
     47 H9          1.7685   -0.4091    5.8271 H         1 <0>         0.0439
     48 H10         2.8890   -2.9095    2.5254 H         1 <0>         0.0350
     49 H11         2.7588   -1.1830    2.2084 H         1 <0>         0.0428
     50 H12         3.9963    0.7098    5.7496 H         1 <0>         0.0663
     51 H13         4.1209   -1.0239    6.0377 H         1 <0>         0.0466
     52 H14         4.8181   -2.5798    3.9844 H         1 <0>         0.0493
     53 H15         5.1225   -1.8035    2.4322 H         1 <0>         0.0520
     54 H16         3.4181    4.7133   -3.3051 H         1 <0>         0.0915
     55 H17         3.3944    4.0971   -1.6373 H         1 <0>         0.0601
     56 H18         4.0497    0.8441   -7.0524 H         1 <0>         0.0688
     57 H19         4.6431    2.4675   -7.3320 H         1 <0>         0.0630
     58 H20         2.8170    1.9026   -2.3635 H         1 <0>         0.0807
     59 H21         1.9588    2.8453   -3.5837 H         1 <0>         0.0380
     60 H22         3.3744    3.3723   -5.7123 H         1 <0>         0.0484
     61 H23         2.4818    1.8533   -5.7569 H         1 <0>         0.0697
     62 H24         5.7646    4.3810   -3.0694 H         1 <0>         0.0843
     63 H25         5.8317   -0.3960    4.4085 H         1 <0>         0.0831
     64 H26         7.8868    1.0311   -6.5450 H         1 <0>         0.0704
     65 H27         7.0672    2.3317   -7.3854 H         1 <0>         0.0718
     66 H28         5.2579    4.9142    2.6804 H         1 <0>         0.0606
     67 H29         5.4809    5.7546    1.1500 H         1 <0>         0.0458
     68 H30         7.2000    6.0392    3.6534 H         1 <0>         0.0375
     69 H31         7.5258    6.8807    2.1417 H         1 <0>         0.0392
     70 H32         7.4599    3.7926    2.4354 H         1 <0>         0.0606
     71 H33         7.7645    4.6634    0.9347 H         1 <0>         0.0579
     72 H34         5.2908    8.0386    2.3228 H         1 <0>         0.0571
     73 H35         6.3225    8.3806    3.7198 H         1 <0>         0.0503
     74 H36         7.0421    2.3587    0.4881 H         1 <0>         0.0993
     75 H37         4.9287   -0.2795   -4.8849 H         1 <0>         0.3700
     76 H38         6.6336   -0.5056   -5.1950 H         1 <0>         0.3660
     77 H39         4.0028    7.6695    4.3608 H         1 <0>         0.3465
     78 H40         4.9421    6.2118    4.5770 H         1 <0>         0.3446
     79 H41         3.7145    1.1511    3.0972 H         1 <0>         0.3148
     80 H42         5.4441    4.5531   -0.5557 H         1 <0>         0.3220
@<TRIPOS>BOND
     1    1    2 ar
     2    1    3 ar
     3    2    4 ar
     4    3    5 ar
     5    4    6 ar
     6    5    6 ar
     7    6   23 1
     8    7   22 1
     9    7   29 am
    10    7   35 2
    11    8    9 1
    12    8   28 1
    13    8   36 2
    14    9   33 am
    15    9   37 2
    16   10   20 1
    17   10   34 am
    18   10   38 2
    19   11   12 1
    20   11   13 1
    21   12   14 1
    22   13   15 1
    23   14   21 1
    24   15   21 1
    25   16   18 1
    26   16   20 1
    27   17   19 1
    28   17   22 1
    29   18   30 1
    30   19   30 1
    31   20   29 1
    32   21   33 1
    33   22   23 1
    34   22   31 1
    35   24   25 1
    36   24   26 1
    37   25   27 1
    38   26   28 1
    39   27   32 1
    40   28   34 1
    41   29   30 1
    42    1   39 1
    43    2   40 1
    44    3   41 1
    45    4   42 1
    46    5   43 1
    47   11   44 1
    48   11   45 1
    49   12   46 1
    50   12   47 1
    51   13   48 1
    52   13   49 1
    53   14   50 1
    54   14   51 1
    55   15   52 1
    56   15   53 1
    57   16   54 1
    58   16   55 1
    59   17   56 1
    60   17   57 1
    61   18   58 1
    62   18   59 1
    63   19   60 1
    64   19   61 1
    65   20   62 1
    66   21   63 1
    67   23   64 1
    68   23   65 1
    69   24   66 1
    70   24   67 1
    71   25   68 1
    72   25   69 1
    73   26   70 1
    74   26   71 1
    75   27   72 1
    76   27   73 1
    77   28   74 1
    78   31   75 1
    79   31   76 1
    80   32   77 1
    81   32   78 1
    82   33   79 1
    83   34   80 1
@<TRIPOS>MOLECULE
1a46_ligand_176
   80    83     0     0     0
SMALL
USER_CHARGES

mmff94s_NoEstat = 84.64
@<TRIPOS>ATOM
      1 C1         11.1945    5.3647   -9.7731 C.ar      1 <0>        -0.1300
      2 C2         11.8337    5.1154   -8.5586 C.ar      1 <0>        -0.1323
      3 C3          9.8873    5.8513   -9.7863 C.ar      1 <0>        -0.1309
      4 C4         11.1656    5.3526   -7.3573 C.ar      1 <0>        -0.1275
      5 C5          9.2192    6.0884   -8.5850 C.ar      1 <0>        -0.1272
      6 C6          9.8628    5.8375   -7.3783 C.ar      1 <0>        -0.0843
      7 C7          7.6425    5.1042   -4.2977 C.2       1 <0>         0.6709
      8 C8          5.2358    2.3798    1.5634 C.2       1 <0>         0.4867
      9 C9          3.8230    2.3549    1.0577 C.2       1 <0>         0.5883
     10 C10         6.5256    3.6321   -1.6689 C.2       1 <0>         0.6572
     11 C11         1.4085   -1.9541    1.0568 C.3       1 <0>        -0.0802
     12 C12         2.4102   -1.7120   -0.0693 C.3       1 <0>        -0.0765
     13 C13         1.3521   -0.7805    2.0311 C.3       1 <0>        -0.0774
     14 C14         2.1398   -0.3897   -0.7884 C.3       1 <0>        -0.0953
     15 C15         1.0838    0.5396    1.3070 C.3       1 <0>        -0.0906
     16 C16         4.6595    3.2577   -3.3009 C.3       1 <0>        -0.0871
     17 C17         7.3760    4.3986   -6.7074 C.3       1 <0>        -0.0716
     18 C18         5.3367    2.3027   -4.2819 C.3       1 <0>         0.1333
     19 C19         6.2012    3.5529   -6.1864 C.3       1 <0>         0.1246
     20 C20         5.7868    4.1659   -2.8575 C.3       1 <0>         0.0606
     21 C21         2.0784    0.8075    0.1696 C.3       1 <0>         0.1012
     22 C22         8.3797    4.8486   -5.6198 C.3       1 <0>         0.1554
     23 C23         9.1441    6.0926   -6.0861 C.3       1 <0>        -0.0356
     24 C24         7.6485    3.7409    2.8432 C.3       1 <0>        -0.0795
     25 C25         8.2774    4.8743    3.6620 C.3       1 <0>        -0.1203
     26 C26         6.9719    4.2276    1.5544 C.3       1 <0>        -0.0920
     27 C27         8.9284    4.3945    4.9589 C.3       1 <0>         0.1502
     28 C28         6.2906    3.1130    0.7514 C.3       1 <0>         0.0224
     29 N1          6.7058    4.1331   -3.9791 N.am      1 <0>        -0.3553
     30 N2          6.4777    3.0462   -4.8435 N.3       1 <0>        -0.4320
     31 N3          9.3531    3.7833   -5.3380 N.3       1 <0>        -0.9031
     32 N4          9.4866    5.5266    5.6910 N.3       1 <0>        -0.9068
     33 N5          3.4082    1.0891    0.7148 N.am      1 <0>        -0.5526
     34 N6          5.7762    3.5917   -0.5046 N.am      1 <0>        -0.5576
     35 O1          7.8821    6.0807   -3.5877 O.2       1 <0>        -0.6710
     36 O2          5.4669    1.7271    2.5732 O.2       1 <0>        -0.4901
     37 O3          3.2225    3.4147    0.9857 O.2       1 <0>        -0.5902
     38 O4          7.6924    3.2783   -1.7917 O.2       1 <0>        -0.5833
     39 H1         11.7147    5.1800  -10.7084 H         1 <0>         0.1320
     40 H2         12.8515    4.7366   -8.5485 H         1 <0>         0.1324
     41 H3          9.3897    6.0452  -10.7320 H         1 <0>         0.1328
     42 H4         11.6716    5.1554   -6.4159 H         1 <0>         0.1324
     43 H5          8.2009    6.4675   -8.6050 H         1 <0>         0.1434
     44 H6          0.4123   -2.1163    0.6268 H         1 <0>         0.0405
     45 H7          1.6748   -2.8696    1.5969 H         1 <0>         0.0421
     46 H8          3.4275   -1.7101    0.3405 H         1 <0>         0.0362
     47 H9          2.3604   -2.5373   -0.7887 H         1 <0>         0.0439
     48 H10         0.5662   -0.9575    2.7741 H         1 <0>         0.0350
     49 H11         2.2989   -0.7161    2.5809 H         1 <0>         0.0428
     50 H12         2.9155   -0.2268   -1.5465 H         1 <0>         0.0663
     51 H13         1.1844   -0.4667   -1.3229 H         1 <0>         0.0466
     52 H14         0.0677    0.5160    0.8929 H         1 <0>         0.0493
     53 H15         1.1117    1.3607    2.0335 H         1 <0>         0.0520
     54 H16         3.9023    3.8458   -3.8340 H         1 <0>         0.0915
     55 H17         4.1709    2.7289   -2.4768 H         1 <0>         0.0601
     56 H18         7.9078    3.8408   -7.4902 H         1 <0>         0.0688
     57 H19         6.9559    5.2827   -7.2061 H         1 <0>         0.0630
     58 H20         5.7303    1.4383   -3.7336 H         1 <0>         0.0807
     59 H21         4.6390    1.9190   -5.0344 H         1 <0>         0.0380
     60 H22         5.2889    4.1652   -6.1941 H         1 <0>         0.0484
     61 H23         6.0298    2.7205   -6.8794 H         1 <0>         0.0697
     62 H24         5.4651    5.1881   -2.6391 H         1 <0>         0.0843
     63 H25         1.7819    1.7076   -0.3790 H         1 <0>         0.0831
     64 H26         9.8520    6.3858   -5.3087 H         1 <0>         0.0704
     65 H27         8.4405    6.9195   -6.1990 H         1 <0>         0.0718
     66 H28         8.4445    3.0306    2.5915 H         1 <0>         0.0606
     67 H29         6.9275    3.2007    3.4679 H         1 <0>         0.0458
     68 H30         9.0354    5.3625    3.0356 H         1 <0>         0.0375
     69 H31         7.5157    5.6329    3.8824 H         1 <0>         0.0392
     70 H32         7.7210    4.7221    0.9235 H         1 <0>         0.0606
     71 H33         6.2174    4.9831    1.8035 H         1 <0>         0.0579
     72 H34         9.7251    3.6753    4.7403 H         1 <0>         0.0571
     73 H35         8.1937    3.8977    5.5994 H         1 <0>         0.0503
     74 H36         7.0421    2.3587    0.4881 H         1 <0>         0.0993
     75 H37         9.0331    2.8434   -5.3754 H         1 <0>         0.3700
     76 H38        10.2196    4.0460   -4.9287 H         1 <0>         0.3660
     77 H39        10.0430    5.3371    6.4969 H         1 <0>         0.3465
     78 H40         9.1331    6.4373    5.4892 H         1 <0>         0.3446
     79 H41         4.0528    0.3153    0.8455 H         1 <0>         0.3148
     80 H42         4.8120    3.9176   -0.5391 H         1 <0>         0.3220
@<TRIPOS>BOND
     1    1    2 ar
     2    1    3 ar
     3    2    4 ar
     4    3    5 ar
     5    4    6 ar
     6    5    6 ar
     7    6   23 1
     8    7   22 1
     9    7   29 am
    10    7   35 2
    11    8    9 1
    12    8   28 1
    13    8   36 2
    14    9   33 am
    15    9   37 2
    16   10   20 1
    17   10   34 am
    18   10   38 2
    19   11   12 1
    20   11   13 1
    21   12   14 1
    22   13   15 1
    23   14   21 1
    24   15   21 1
    25   16   18 1
    26   16   20 1
    27   17   19 1
    28   17   22 1
    29   18   30 1
    30   19   30 1
    31   20   29 1
    32   21   33 1
    33   22   23 1
    34   22   31 1
    35   24   25 1
    36   24   26 1
    37   25   27 1
    38   26   28 1
    39   27   32 1
    40   28   34 1
    41   29   30 1
    42    1   39 1
    43    2   40 1
    44    3   41 1
    45    4   42 1
    46    5   43 1
    47   11   44 1
    48   11   45 1
    49   12   46 1
    50   12   47 1
    51   13   48 1
    52   13   49 1
    53   14   50 1
    54   14   51 1
    55   15   52 1
    56   15   53 1
    57   16   54 1
    58   16   55 1
    59   17   56 1
    60   17   57 1
    61   18   58 1
    62   18   59 1
    63   19   60 1
    64   19   61 1
    65   20   62 1
    66   21   63 1
    67   23   64 1
    68   23   65 1
    69   24   66 1
    70   24   67 1
    71   25   68 1
    72   25   69 1
    73   26   70 1
    74   26   71 1
    75   27   72 1
    76   27   73 1
    77   28   74 1
    78   31   75 1
    79   31   76 1
    80   32   77 1
    81   32   78 1
    82   33   79 1
    83   34   80 1
@<TRIPOS>MOLECULE
1a46_ligand_177
   80    83     0     0     0
SMALL
USER_CHARGES

mmff94s_NoEstat = 84.64
@<TRIPOS>ATOM
      1 C1         -7.7455    8.1925  -11.7378 C.ar      1 <0>        -0.1300
      2 C2         -6.4538    8.7176  -11.7053 C.ar      1 <0>        -0.1323
      3 C3         -8.1013    7.1613  -10.8684 C.ar      1 <0>        -0.1309
      4 C4         -5.5176    8.2116  -10.8036 C.ar      1 <0>        -0.1275
      5 C5         -7.1651    6.6552   -9.9666 C.ar      1 <0>        -0.1272
      6 C6         -5.8794    7.1836   -9.9401 C.ar      1 <0>        -0.0843
      7 C7         -3.0518    4.9149   -8.5929 C.2       1 <0>         0.6709
      8 C8          2.7796    3.2097   -6.1637 C.2       1 <0>         0.4867
      9 C9          2.2829    2.0299   -5.3801 C.2       1 <0>         0.5883
     10 C10        -0.2306    3.3845   -8.4382 C.2       1 <0>         0.6572
     11 C11         3.8521   -2.7307   -3.3579 C.3       1 <0>        -0.0802
     12 C12         3.3647   -2.7824   -4.8031 C.3       1 <0>        -0.0765
     13 C13         3.2011   -1.5875   -2.5845 C.3       1 <0>        -0.0774
     14 C14         3.5595   -1.4430   -5.5118 C.3       1 <0>        -0.0953
     15 C15         3.3964   -0.2468   -3.2904 C.3       1 <0>        -0.0906
     16 C16        -1.8342    1.4799   -8.7324 C.3       1 <0>        -0.0871
     17 C17        -5.0487    4.3542  -10.0327 C.3       1 <0>        -0.0716
     18 C18        -2.3033    1.7312  -10.1641 C.3       1 <0>         0.1333
     19 C19        -4.4074    2.9598  -10.1390 C.3       1 <0>         0.1246
     20 C20        -1.6152    2.8736   -8.1831 C.3       1 <0>         0.0606
     21 C21         2.8945   -0.2997   -4.7376 C.3       1 <0>         0.1012
     22 C22        -4.0838    5.4758   -9.5814 C.3       1 <0>         0.1554
     23 C23        -4.8724    6.6393   -8.9701 C.3       1 <0>        -0.0356
     24 C24         1.5857    6.0302   -6.5865 C.3       1 <0>        -0.0795
     25 C25         1.6811    7.5259   -6.9095 C.3       1 <0>        -0.1203
     26 C26         2.1570    5.1335   -7.6933 C.3       1 <0>        -0.0920
     27 C27         1.0885    8.4192   -5.8200 C.3       1 <0>         0.1502
     28 C28         2.0196    3.6328   -7.4097 C.3       1 <0>         0.0224
     29 N1         -2.5211    3.6904   -8.9681 N.am      1 <0>        -0.3553
     30 N2         -2.9489    3.0553  -10.1488 N.3       1 <0>        -0.4320
     31 N3         -3.3108    5.9870  -10.7228 N.3       1 <0>        -0.9031
     32 N4          1.1980    9.8225   -6.2046 N.3       1 <0>        -0.9068
     33 N5          3.1633    0.9734   -5.4035 N.am      1 <0>        -0.5526
     34 N6          0.6426    3.2153   -7.3763 N.am      1 <0>        -0.5576
     35 O1         -2.7244    5.5164   -7.5701 O.2       1 <0>        -0.6710
     36 O2          3.8302    3.7133   -5.7870 O.2       1 <0>        -0.4901
     37 O3          1.1896    2.1176   -4.8457 O.2       1 <0>        -0.5902
     38 O4          0.0350    3.8958   -9.5198 O.2       1 <0>        -0.5833
     39 H1         -8.4745    8.5865  -12.4399 H         1 <0>         0.1320
     40 H2         -6.1769    9.5206  -12.3823 H         1 <0>         0.1324
     41 H3         -9.1071    6.7523  -10.8939 H         1 <0>         0.1328
     42 H4         -4.5135    8.6269  -10.7854 H         1 <0>         0.1324
     43 H5         -7.4512    5.8517   -9.2932 H         1 <0>         0.1434
     44 H6          3.6347   -3.6829   -2.8611 H         1 <0>         0.0405
     45 H7          4.9418   -2.6046   -3.3455 H         1 <0>         0.0421
     46 H8          3.9027   -3.5679   -5.3456 H         1 <0>         0.0362
     47 H9          2.3016   -3.0522   -4.8208 H         1 <0>         0.0439
     48 H10         2.1283   -1.7867   -2.4713 H         1 <0>         0.0350
     49 H11         3.6248   -1.5374   -1.5751 H         1 <0>         0.0428
     50 H12         4.6333   -1.2441   -5.6262 H         1 <0>         0.0663
     51 H13         3.1451   -1.4996   -6.5258 H         1 <0>         0.0466
     52 H14         2.8670    0.5397   -2.7390 H         1 <0>         0.0493
     53 H15         4.4605    0.0234   -3.2719 H         1 <0>         0.0520
     54 H16        -2.6369    0.9859   -8.1710 H         1 <0>         0.0915
     55 H17        -0.9427    0.8466   -8.6926 H         1 <0>         0.0601
     56 H18        -5.4989    4.6229  -10.9981 H         1 <0>         0.0688
     57 H19        -5.8853    4.2840   -9.3243 H         1 <0>         0.0630
     58 H20        -1.4316    1.7851  -10.8273 H         1 <0>         0.0807
     59 H21        -2.9449    0.9252  -10.5369 H         1 <0>         0.0380
     60 H22        -4.7542    2.3419   -9.2992 H         1 <0>         0.0484
     61 H23        -4.7632    2.4757  -11.0564 H         1 <0>         0.0697
     62 H24        -1.8289    2.9613   -7.1141 H         1 <0>         0.0843
     63 H25         1.8060   -0.4283   -4.7482 H         1 <0>         0.0831
     64 H26        -4.1735    7.4215   -8.6684 H         1 <0>         0.0704
     65 H27        -5.3683    6.2928   -8.0614 H         1 <0>         0.0718
     66 H28         2.1358    5.8550   -5.6547 H         1 <0>         0.0606
     67 H29         0.5392    5.7688   -6.3906 H         1 <0>         0.0458
     68 H30         2.7419    7.7748   -7.0444 H         1 <0>         0.0375
     69 H31         1.1870    7.7255   -7.8687 H         1 <0>         0.0392
     70 H32         3.2164    5.3787   -7.8393 H         1 <0>         0.0606
     71 H33         1.6466    5.3535   -8.6384 H         1 <0>         0.0579
     72 H34         1.6137    8.2608   -4.8719 H         1 <0>         0.0571
     73 H35         0.0315    8.1861   -5.6617 H         1 <0>         0.0503
     74 H36         2.4714    3.0747   -8.2388 H         1 <0>         0.0993
     75 H37        -3.0417    5.3386  -11.4260 H         1 <0>         0.3700
     76 H38        -2.9200    6.8973  -10.6453 H         1 <0>         0.3660
     77 H39         0.9557   10.5154   -5.5293 H         1 <0>         0.3465
     78 H40         1.3102   10.0373   -7.1723 H         1 <0>         0.3446
     79 H41         4.0392    1.0827   -5.9058 H         1 <0>         0.3148
     80 H42         0.2924    2.7728   -6.5286 H         1 <0>         0.3220
@<TRIPOS>BOND
     1    1    2 ar
     2    1    3 ar
     3    2    4 ar
     4    3    5 ar
     5    4    6 ar
     6    5    6 ar
     7    6   23 1
     8    7   22 1
     9    7   29 am
    10    7   35 2
    11    8    9 1
    12    8   28 1
    13    8   36 2
    14    9   33 am
    15    9   37 2
    16   10   20 1
    17   10   34 am
    18   10   38 2
    19   11   12 1
    20   11   13 1
    21   12   14 1
    22   13   15 1
    23   14   21 1
    24   15   21 1
    25   16   18 1
    26   16   20 1
    27   17   19 1
    28   17   22 1
    29   18   30 1
    30   19   30 1
    31   20   29 1
    32   21   33 1
    33   22   23 1
    34   22   31 1
    35   24   25 1
    36   24   26 1
    37   25   27 1
    38   26   28 1
    39   27   32 1
    40   28   34 1
    41   29   30 1
    42    1   39 1
    43    2   40 1
    44    3   41 1
    45    4   42 1
    46    5   43 1
    47   11   44 1
    48   11   45 1
    49   12   46 1
    50   12   47 1
    51   13   48 1
    52   13   49 1
    53   14   50 1
    54   14   51 1
    55   15   52 1
    56   15   53 1
    57   16   54 1
    58   16   55 1
    59   17   56 1
    60   17   57 1
    61   18   58 1
    62   18   59 1
    63   19   60 1
    64   19   61 1
    65   20   62 1
    66   21   63 1
    67   23   64 1
    68   23   65 1
    69   24   66 1
    70   24   67 1
    71   25   68 1
    72   25   69 1
    73   26   70 1
    74   26   71 1
    75   27   72 1
    76   27   73 1
    77   28   74 1
    78   31   75 1
    79   31   76 1
    80   32   77 1
    81   32   78 1
    82   33   79 1
    83   34   80 1
@<TRIPOS>MOLECULE
1a46_ligand_178
   80    83     0     0     0
SMALL
USER_CHARGES

mmff94s_NoEstat = 84.67
@<TRIPOS>ATOM
      1 C1         -3.7305   -5.9204  -11.3537 C.ar      1 <0>        -0.1300
      2 C2         -2.4262   -5.5183  -11.6410 C.ar      1 <0>        -0.1323
      3 C3         -4.6750   -4.9808  -10.9404 C.ar      1 <0>        -0.1309
      4 C4         -2.0662   -4.1766  -11.5149 C.ar      1 <0>        -0.1275
      5 C5         -4.3150   -3.6391  -10.8142 C.ar      1 <0>        -0.1272
      6 C6         -3.0129   -3.2458  -11.1023 C.ar      1 <0>        -0.0843
      7 C7         -1.7147   -0.0189   -9.4111 C.2       1 <0>         0.6709
      8 C8          2.7796    3.2097   -6.1637 C.2       1 <0>         0.4867
      9 C9          2.2829    2.0299   -5.3801 C.2       1 <0>         0.5883
     10 C10         0.2181    1.9581   -7.7739 C.2       1 <0>         0.6572
     11 C11         1.5348    0.3058   -0.3123 C.3       1 <0>        -0.0802
     12 C12         2.3881   -0.3689   -1.3826 C.3       1 <0>        -0.0765
     13 C13         0.3388    1.0325   -0.9209 C.3       1 <0>        -0.0774
     14 C14         2.8229    0.6200   -2.4630 C.3       1 <0>        -0.0953
     15 C15         0.7714    2.0234   -2.0002 C.3       1 <0>        -0.0906
     16 C16        -1.7326    1.7367   -6.2145 C.3       1 <0>        -0.0871
     17 C17        -3.1871   -1.8587   -8.5042 C.3       1 <0>        -0.0716
     18 C18        -1.5889    0.2745   -5.7969 C.3       1 <0>         0.1333
     19 C19        -3.0480   -1.1203   -7.1617 C.3       1 <0>         0.1246
     20 C20        -1.2590    1.7411   -7.6524 C.3       1 <0>         0.0606
     21 C21         1.6178    1.3392   -3.0792 C.3       1 <0>         0.1012
     22 C22        -2.1125   -1.4947   -9.5555 C.3       1 <0>         0.1554
     23 C23        -2.6257   -1.8026  -10.9666 C.3       1 <0>        -0.0356
     24 C24         1.5857    6.0302   -6.5865 C.3       1 <0>        -0.0795
     25 C25         1.6811    7.5259   -6.9095 C.3       1 <0>        -0.1203
     26 C26         2.1570    5.1335   -7.6933 C.3       1 <0>        -0.0920
     27 C27         1.0885    8.4192   -5.8200 C.3       1 <0>         0.1502
     28 C28         2.0196    3.6328   -7.4097 C.3       1 <0>         0.0224
     29 N1         -1.5278    0.3875   -8.0990 N.am      1 <0>        -0.3553
     30 N2         -1.7250   -0.5121   -7.0349 N.3       1 <0>        -0.4320
     31 N3         -0.8818   -2.2667   -9.3297 N.3       1 <0>        -0.9031
     32 N4          1.1980    9.8225   -6.2046 N.3       1 <0>        -0.9068
     33 N5          2.0747    2.3281   -4.0537 N.am      1 <0>        -0.5526
     34 N6          0.6426    3.2153   -7.3763 N.am      1 <0>        -0.5576
     35 O1         -1.5651    0.7213  -10.3831 O.2       1 <0>        -0.6710
     36 O2          3.8302    3.7133   -5.7870 O.2       1 <0>        -0.4901
     37 O3          2.1422    0.9706   -5.9690 O.2       1 <0>        -0.5902
     38 O4          0.9290    1.0536   -8.1959 O.2       1 <0>        -0.5833
     39 H1         -4.0108   -6.9651  -11.4519 H         1 <0>         0.1320
     40 H2         -1.6909   -6.2500  -11.9629 H         1 <0>         0.1324
     41 H3         -5.6906   -5.2940  -10.7166 H         1 <0>         0.1328
     42 H4         -1.0476   -3.8726  -11.7408 H         1 <0>         0.1324
     43 H5         -5.0575   -2.9141  -10.4915 H         1 <0>         0.1434
     44 H6          1.1843   -0.4434    0.4064 H         1 <0>         0.0405
     45 H7          2.1503    1.0218    0.2461 H         1 <0>         0.0421
     46 H8          3.2725   -0.8200   -0.9187 H         1 <0>         0.0362
     47 H9          1.8179   -1.1845   -1.8441 H         1 <0>         0.0439
     48 H10        -0.3523    0.2996   -1.3552 H         1 <0>         0.0350
     49 H11        -0.2102    1.5617   -0.1338 H         1 <0>         0.0428
     50 H12         3.5155    1.3530   -2.0286 H         1 <0>         0.0663
     51 H13         3.3820    0.0898   -3.2435 H         1 <0>         0.0466
     52 H14        -0.1151    2.4823   -2.4547 H         1 <0>         0.0493
     53 H15         1.3414    2.8401   -1.5379 H         1 <0>         0.0520
     54 H16        -2.7915    2.0208   -6.1758 H         1 <0>         0.0915
     55 H17        -1.1685    2.4118   -5.5637 H         1 <0>         0.0601
     56 H18        -3.1756   -2.9428   -8.3269 H         1 <0>         0.0688
     57 H19        -4.1842   -1.6345   -8.9071 H         1 <0>         0.0630
     58 H20        -0.5812    0.1087   -5.3971 H         1 <0>         0.0807
     59 H21        -2.2993   -0.0031   -5.0104 H         1 <0>         0.0380
     60 H22        -3.8377   -0.3598   -7.0886 H         1 <0>         0.0484
     61 H23        -3.2188   -1.8335   -6.3463 H         1 <0>         0.0697
     62 H24        -1.7729    2.4744   -8.2803 H         1 <0>         0.0843
     63 H25         1.0021    0.6222   -3.6345 H         1 <0>         0.0831
     64 H26        -1.8489   -1.5475  -11.6898 H         1 <0>         0.0704
     65 H27        -3.4798   -1.1578  -11.1818 H         1 <0>         0.0718
     66 H28         2.1358    5.8550   -5.6547 H         1 <0>         0.0606
     67 H29         0.5392    5.7688   -6.3906 H         1 <0>         0.0458
     68 H30         2.7419    7.7748   -7.0444 H         1 <0>         0.0375
     69 H31         1.1870    7.7255   -7.8687 H         1 <0>         0.0392
     70 H32         3.2164    5.3787   -7.8393 H         1 <0>         0.0606
     71 H33         1.6466    5.3535   -8.6384 H         1 <0>         0.0579
     72 H34         1.6137    8.2608   -4.8719 H         1 <0>         0.0571
     73 H35         0.0315    8.1861   -5.6617 H         1 <0>         0.0503
     74 H36         2.4714    3.0747   -8.2388 H         1 <0>         0.0993
     75 H37        -0.6260   -2.4640   -8.3900 H         1 <0>         0.3700
     76 H38        -0.2603   -2.3800  -10.0968 H         1 <0>         0.3660
     77 H39         0.9557   10.5154   -5.5293 H         1 <0>         0.3465
     78 H40         1.3102   10.0373   -7.1723 H         1 <0>         0.3446
     79 H41         2.2460    3.2779   -3.7372 H         1 <0>         0.3148
     80 H42        -0.0552    3.8781   -7.0434 H         1 <0>         0.3220
@<TRIPOS>BOND
     1    1    2 ar
     2    1    3 ar
     3    2    4 ar
     4    3    5 ar
     5    4    6 ar
     6    5    6 ar
     7    6   23 1
     8    7   22 1
     9    7   29 am
    10    7   35 2
    11    8    9 1
    12    8   28 1
    13    8   36 2
    14    9   33 am
    15    9   37 2
    16   10   20 1
    17   10   34 am
    18   10   38 2
    19   11   12 1
    20   11   13 1
    21   12   14 1
    22   13   15 1
    23   14   21 1
    24   15   21 1
    25   16   18 1
    26   16   20 1
    27   17   19 1
    28   17   22 1
    29   18   30 1
    30   19   30 1
    31   20   29 1
    32   21   33 1
    33   22   23 1
    34   22   31 1
    35   24   25 1
    36   24   26 1
    37   25   27 1
    38   26   28 1
    39   27   32 1
    40   28   34 1
    41   29   30 1
    42    1   39 1
    43    2   40 1
    44    3   41 1
    45    4   42 1
    46    5   43 1
    47   11   44 1
    48   11   45 1
    49   12   46 1
    50   12   47 1
    51   13   48 1
    52   13   49 1
    53   14   50 1
    54   14   51 1
    55   15   52 1
    56   15   53 1
    57   16   54 1
    58   16   55 1
    59   17   56 1
    60   17   57 1
    61   18   58 1
    62   18   59 1
    63   19   60 1
    64   19   61 1
    65   20   62 1
    66   21   63 1
    67   23   64 1
    68   23   65 1
    69   24   66 1
    70   24   67 1
    71   25   68 1
    72   25   69 1
    73   26   70 1
    74   26   71 1
    75   27   72 1
    76   27   73 1
    77   28   74 1
    78   31   75 1
    79   31   76 1
    80   32   77 1
    81   32   78 1
    82   33   79 1
    83   34   80 1
@<TRIPOS>MOLECULE
1a46_ligand_179
   80    83     0     0     0
SMALL
USER_CHARGES

mmff94s_NoEstat = 84.67
@<TRIPOS>ATOM
      1 C1         -3.7305   -5.9204  -11.3537 C.ar      1 <0>        -0.1300
      2 C2         -2.4262   -5.5183  -11.6410 C.ar      1 <0>        -0.1323
      3 C3         -4.6750   -4.9808  -10.9404 C.ar      1 <0>        -0.1309
      4 C4         -2.0662   -4.1766  -11.5149 C.ar      1 <0>        -0.1275
      5 C5         -4.3150   -3.6391  -10.8142 C.ar      1 <0>        -0.1272
      6 C6         -3.0129   -3.2458  -11.1023 C.ar      1 <0>        -0.0843
      7 C7         -1.7147   -0.0189   -9.4111 C.2       1 <0>         0.6709
      8 C8          2.7796    3.2097   -6.1637 C.2       1 <0>         0.4867
      9 C9          4.2189    2.8058   -6.2975 C.2       1 <0>         0.5883
     10 C10         0.2181    1.9581   -7.7739 C.2       1 <0>         0.6572
     11 C11         8.3666    0.7600   -3.5001 C.3       1 <0>        -0.0802
     12 C12         8.2245    2.2767   -3.4103 C.3       1 <0>        -0.0765
     13 C13         7.8013    0.2179   -4.8099 C.3       1 <0>        -0.0774
     14 C14         6.7784    2.7209   -3.6235 C.3       1 <0>        -0.0953
     15 C15         6.3545    0.6592   -5.0243 C.3       1 <0>        -0.0906
     16 C16        -1.7326    1.7367   -6.2145 C.3       1 <0>        -0.0871
     17 C17        -3.1871   -1.8587   -8.5042 C.3       1 <0>        -0.0716
     18 C18        -1.5889    0.2745   -5.7969 C.3       1 <0>         0.1333
     19 C19        -3.0480   -1.1203   -7.1617 C.3       1 <0>         0.1246
     20 C20        -1.2590    1.7411   -7.6524 C.3       1 <0>         0.0606
     21 C21         6.2184    2.1837   -4.9453 C.3       1 <0>         0.1012
     22 C22        -2.1125   -1.4947   -9.5555 C.3       1 <0>         0.1554
     23 C23        -2.6257   -1.8026  -10.9666 C.3       1 <0>        -0.0356
     24 C24         1.4445    5.5921   -8.9731 C.3       1 <0>        -0.0795
     25 C25         1.6370    7.0835   -9.2718 C.3       1 <0>        -0.1203
     26 C26         2.1570    5.1335   -7.6933 C.3       1 <0>        -0.0920
     27 C27         0.9502    7.5360  -10.5601 C.3       1 <0>         0.1502
     28 C28         2.0196    3.6328   -7.4097 C.3       1 <0>         0.0224
     29 N1         -1.5278    0.3875   -8.0990 N.am      1 <0>        -0.3553
     30 N2         -1.7250   -0.5121   -7.0349 N.3       1 <0>        -0.4320
     31 N3         -0.8818   -2.2667   -9.3297 N.3       1 <0>        -0.9031
     32 N4          1.1922    8.9569  -10.7874 N.3       1 <0>        -0.9068
     33 N5          4.8139    2.5648   -5.0811 N.am      1 <0>        -0.5526
     34 N6          0.6426    3.2153   -7.3763 N.am      1 <0>        -0.5576
     35 O1         -1.5651    0.7213  -10.3831 O.2       1 <0>        -0.6710
     36 O2          2.3266    3.2509   -5.0269 O.2       1 <0>        -0.4901
     37 O3          4.6970    2.7561   -7.4190 O.2       1 <0>        -0.5902
     38 O4          0.9290    1.0536   -8.1959 O.2       1 <0>        -0.5833
     39 H1         -4.0108   -6.9651  -11.4519 H         1 <0>         0.1320
     40 H2         -1.6909   -6.2500  -11.9629 H         1 <0>         0.1324
     41 H3         -5.6906   -5.2940  -10.7166 H         1 <0>         0.1328
     42 H4         -1.0476   -3.8726  -11.7408 H         1 <0>         0.1324
     43 H5         -5.0575   -2.9141  -10.4915 H         1 <0>         0.1434
     44 H6          9.4231    0.4827   -3.4118 H         1 <0>         0.0405
     45 H7          7.8419    0.2946   -2.6567 H         1 <0>         0.0421
     46 H8          8.5755    2.6224   -2.4314 H         1 <0>         0.0362
     47 H9          8.8653    2.7491   -4.1649 H         1 <0>         0.0439
     48 H10         8.4171    0.5688   -5.6472 H         1 <0>         0.0350
     49 H11         7.8564   -0.8766   -4.8098 H         1 <0>         0.0428
     50 H12         6.1622    2.3705   -2.7850 H         1 <0>         0.0663
     51 H13         6.7243    3.8163   -3.6115 H         1 <0>         0.0466
     52 H14         6.0017    0.3018   -5.9994 H         1 <0>         0.0493
     53 H15         5.7132    0.1855   -4.2693 H         1 <0>         0.0520
     54 H16        -2.7915    2.0208   -6.1758 H         1 <0>         0.0915
     55 H17        -1.1685    2.4118   -5.5637 H         1 <0>         0.0601
     56 H18        -3.1756   -2.9428   -8.3269 H         1 <0>         0.0688
     57 H19        -4.1842   -1.6345   -8.9071 H         1 <0>         0.0630
     58 H20        -0.5812    0.1087   -5.3971 H         1 <0>         0.0807
     59 H21        -2.2993   -0.0031   -5.0104 H         1 <0>         0.0380
     60 H22        -3.8377   -0.3598   -7.0886 H         1 <0>         0.0484
     61 H23        -3.2188   -1.8335   -6.3463 H         1 <0>         0.0697
     62 H24        -1.7729    2.4744   -8.2803 H         1 <0>         0.0843
     63 H25         6.7455    2.6473   -5.7872 H         1 <0>         0.0831
     64 H26        -1.8489   -1.5475  -11.6898 H         1 <0>         0.0704
     65 H27        -3.4798   -1.1578  -11.1818 H         1 <0>         0.0718
     66 H28         0.3683    5.4079   -8.8774 H         1 <0>         0.0606
     67 H29         1.7918    5.0040   -9.8306 H         1 <0>         0.0458
     68 H30         1.2300    7.6523   -8.4256 H         1 <0>         0.0375
     69 H31         2.7093    7.3123   -9.3176 H         1 <0>         0.0392
     70 H32         1.7604    5.7005   -6.8419 H         1 <0>         0.0606
     71 H33         3.2243    5.3739   -7.7660 H         1 <0>         0.0579
     72 H34        -0.1287    7.3572  -10.4981 H         1 <0>         0.0571
     73 H35         1.3345    6.9786  -11.4193 H         1 <0>         0.0503
     74 H36         2.4714    3.0747   -8.2388 H         1 <0>         0.0993
     75 H37        -0.6260   -2.4640   -8.3900 H         1 <0>         0.3700
     76 H38        -0.2603   -2.3800  -10.0968 H         1 <0>         0.3660
     77 H39         0.7014    9.4044  -11.5317 H         1 <0>         0.3465
     78 H40         1.9755    9.3785  -10.3359 H         1 <0>         0.3446
     79 H41         4.2523    2.6558   -4.2398 H         1 <0>         0.3148
     80 H42        -0.0552    3.8781   -7.0434 H         1 <0>         0.3220
@<TRIPOS>BOND
     1    1    2 ar
     2    1    3 ar
     3    2    4 ar
     4    3    5 ar
     5    4    6 ar
     6    5    6 ar
     7    6   23 1
     8    7   22 1
     9    7   29 am
    10    7   35 2
    11    8    9 1
    12    8   28 1
    13    8   36 2
    14    9   33 am
    15    9   37 2
    16   10   20 1
    17   10   34 am
    18   10   38 2
    19   11   12 1
    20   11   13 1
    21   12   14 1
    22   13   15 1
    23   14   21 1
    24   15   21 1
    25   16   18 1
    26   16   20 1
    27   17   19 1
    28   17   22 1
    29   18   30 1
    30   19   30 1
    31   20   29 1
    32   21   33 1
    33   22   23 1
    34   22   31 1
    35   24   25 1
    36   24   26 1
    37   25   27 1
    38   26   28 1
    39   27   32 1
    40   28   34 1
    41   29   30 1
    42    1   39 1
    43    2   40 1
    44    3   41 1
    45    4   42 1
    46    5   43 1
    47   11   44 1
    48   11   45 1
    49   12   46 1
    50   12   47 1
    51   13   48 1
    52   13   49 1
    53   14   50 1
    54   14   51 1
    55   15   52 1
    56   15   53 1
    57   16   54 1
    58   16   55 1
    59   17   56 1
    60   17   57 1
    61   18   58 1
    62   18   59 1
    63   19   60 1
    64   19   61 1
    65   20   62 1
    66   21   63 1
    67   23   64 1
    68   23   65 1
    69   24   66 1
    70   24   67 1
    71   25   68 1
    72   25   69 1
    73   26   70 1
    74   26   71 1
    75   27   72 1
    76   27   73 1
    77   28   74 1
    78   31   75 1
    79   31   76 1
    80   32   77 1
    81   32   78 1
    82   33   79 1
    83   34   80 1
@<TRIPOS>MOLECULE
1a46_ligand_180
   80    83     0     0     0
SMALL
USER_CHARGES

mmff94s_NoEstat = 84.68
@<TRIPOS>ATOM
      1 C1          9.0003   12.0144   -5.4225 C.ar      1 <0>        -0.1300
      2 C2          9.4537   11.5665   -4.1818 C.ar      1 <0>        -0.1323
      3 C3          7.8120   11.5127   -5.9535 C.ar      1 <0>        -0.1309
      4 C4          8.7189   10.6167   -3.4722 C.ar      1 <0>        -0.1275
      5 C5          7.0772   10.5629   -5.2439 C.ar      1 <0>        -0.1272
      6 C6          7.5355   10.1211   -4.0078 C.ar      1 <0>        -0.0843
      7 C7          6.3757    6.6257   -2.8269 C.2       1 <0>         0.6709
      8 C8          5.2358    2.3798    1.5634 C.2       1 <0>         0.4867
      9 C9          3.8230    2.3549    1.0577 C.2       1 <0>         0.5883
     10 C10         6.5256    3.6321   -1.6689 C.2       1 <0>         0.6572
     11 C11         1.4181    6.7678    0.8940 C.3       1 <0>        -0.0802
     12 C12         1.4560    5.8610    2.1213 C.3       1 <0>        -0.0765
     13 C13         2.2461    6.2031   -0.2573 C.3       1 <0>        -0.0774
     14 C14         1.0454    4.4289    1.7758 C.3       1 <0>        -0.0953
     15 C15         1.8333    4.7703   -0.5974 C.3       1 <0>        -0.0906
     16 C16         5.8400    3.2307   -4.0468 C.3       1 <0>        -0.0871
     17 C17         7.0291    7.4385   -5.1265 C.3       1 <0>        -0.0716
     18 C18         7.1120    3.6562   -4.7776 C.3       1 <0>         0.1333
     19 C19         6.8955    5.9616   -5.5361 C.3       1 <0>         0.1246
     20 C20         5.7868    4.1659   -2.8575 C.3       1 <0>         0.0606
     21 C21         1.8637    3.8371    0.6204 C.3       1 <0>         0.1012
     22 C22         7.1815    7.6752   -3.6055 C.3       1 <0>         0.1554
     23 C23         6.7451    9.0995   -3.2444 C.3       1 <0>        -0.0356
     24 C24         8.0800    4.9598    0.7851 C.3       1 <0>        -0.0795
     25 C25         8.7880    6.0338    1.6192 C.3       1 <0>        -0.1203
     26 C26         6.9719    4.2276    1.5544 C.3       1 <0>        -0.0920
     27 C27         9.9095    6.7454    0.8629 C.3       1 <0>         0.1502
     28 C28         6.2906    3.1130    0.7514 C.3       1 <0>         0.0224
     29 N1          6.5101    5.3360   -3.3173 N.am      1 <0>        -0.3553
     30 N2          7.3084    5.0783   -4.4472 N.3       1 <0>        -0.4320
     31 N3          8.5804    7.4980   -3.1893 N.3       1 <0>        -0.9031
     32 N4          9.3732    7.4215   -0.3138 N.3       1 <0>        -0.9068
     33 N5          3.2455    3.6032    1.0456 N.am      1 <0>        -0.5526
     34 N6          5.7762    3.5917   -0.5046 N.am      1 <0>        -0.5576
     35 O1          5.6876    6.9159   -1.8485 O.2       1 <0>        -0.6710
     36 O2          5.4669    1.7271    2.5732 O.2       1 <0>        -0.4901
     37 O3          3.3466    1.2762    0.7444 O.2       1 <0>        -0.5902
     38 O4          7.6924    3.2783   -1.7917 O.2       1 <0>        -0.5833
     39 H1          9.5724   12.7539   -5.9752 H         1 <0>         0.1320
     40 H2         10.3789   11.9573   -3.7685 H         1 <0>         0.1324
     41 H3          7.4591   11.8615   -6.9197 H         1 <0>         0.1328
     42 H4          9.0800   10.2736   -2.5062 H         1 <0>         0.1324
     43 H5          6.1526   10.1776   -5.6655 H         1 <0>         0.1434
     44 H6          0.3784    6.8907    0.5662 H         1 <0>         0.0405
     45 H7          1.7877    7.7645    1.1601 H         1 <0>         0.0421
     46 H8          2.4665    5.8646    2.5474 H         1 <0>         0.0362
     47 H9          0.7860    6.2585    2.8922 H         1 <0>         0.0439
     48 H10         2.1267    6.8389   -1.1420 H         1 <0>         0.0350
     49 H11         3.3094    6.2291    0.0101 H         1 <0>         0.0428
     50 H12         1.1447    3.8004    2.6691 H         1 <0>         0.0663
     51 H13        -0.0166    4.4224    1.4992 H         1 <0>         0.0466
     52 H14         0.8166    4.7834   -1.0104 H         1 <0>         0.0493
     53 H15         2.4912    4.3837   -1.3851 H         1 <0>         0.0520
     54 H16         4.9736    3.4114   -4.6951 H         1 <0>         0.0915
     55 H17         5.8531    2.1713   -3.7729 H         1 <0>         0.0601
     56 H18         7.8805    7.8879   -5.6555 H         1 <0>         0.0688
     57 H19         6.1391    7.9685   -5.4921 H         1 <0>         0.0630
     58 H20         7.9647    3.0932   -4.3794 H         1 <0>         0.0807
     59 H21         7.0607    3.4497   -5.8523 H         1 <0>         0.0380
     60 H22         5.8545    5.7643   -5.8276 H         1 <0>         0.0484
     61 H23         7.5124    5.7838   -6.4252 H         1 <0>         0.0697
     62 H24         4.7698    4.4250   -2.5496 H         1 <0>         0.0843
     63 H25         1.4635    2.8554    0.3463 H         1 <0>         0.0831
     64 H26         6.8700    9.2469   -2.1701 H         1 <0>         0.0704
     65 H27         5.6795    9.2080   -3.4549 H         1 <0>         0.0718
     66 H28         7.6494    5.4516   -0.0948 H         1 <0>         0.0606
     67 H29         8.8216    4.2418    0.4157 H         1 <0>         0.0458
     68 H30         8.0356    6.7709    1.9287 H         1 <0>         0.0375
     69 H31         9.1825    5.5824    2.5383 H         1 <0>         0.0392
     70 H32         6.2171    4.9575    1.8728 H         1 <0>         0.0606
     71 H33         7.3929    3.7874    2.4660 H         1 <0>         0.0579
     72 H34        10.6735    6.0252    0.5509 H         1 <0>         0.0571
     73 H35        10.3920    7.4923    1.5001 H         1 <0>         0.0503
     74 H36         7.0421    2.3587    0.4881 H         1 <0>         0.0993
     75 H37         9.1142    6.7979   -3.6499 H         1 <0>         0.3700
     76 H38         8.8693    7.9327   -2.3437 H         1 <0>         0.3660
     77 H39        10.0182    7.8250   -0.9589 H         1 <0>         0.3465
     78 H40         8.3988    7.6342   -0.3305 H         1 <0>         0.3446
     79 H41         3.8022    4.3983    1.3448 H         1 <0>         0.3148
     80 H42         4.8120    3.9176   -0.5391 H         1 <0>         0.3220
@<TRIPOS>BOND
     1    1    2 ar
     2    1    3 ar
     3    2    4 ar
     4    3    5 ar
     5    4    6 ar
     6    5    6 ar
     7    6   23 1
     8    7   22 1
     9    7   29 am
    10    7   35 2
    11    8    9 1
    12    8   28 1
    13    8   36 2
    14    9   33 am
    15    9   37 2
    16   10   20 1
    17   10   34 am
    18   10   38 2
    19   11   12 1
    20   11   13 1
    21   12   14 1
    22   13   15 1
    23   14   21 1
    24   15   21 1
    25   16   18 1
    26   16   20 1
    27   17   19 1
    28   17   22 1
    29   18   30 1
    30   19   30 1
    31   20   29 1
    32   21   33 1
    33   22   23 1
    34   22   31 1
    35   24   25 1
    36   24   26 1
    37   25   27 1
    38   26   28 1
    39   27   32 1
    40   28   34 1
    41   29   30 1
    42    1   39 1
    43    2   40 1
    44    3   41 1
    45    4   42 1
    46    5   43 1
    47   11   44 1
    48   11   45 1
    49   12   46 1
    50   12   47 1
    51   13   48 1
    52   13   49 1
    53   14   50 1
    54   14   51 1
    55   15   52 1
    56   15   53 1
    57   16   54 1
    58   16   55 1
    59   17   56 1
    60   17   57 1
    61   18   58 1
    62   18   59 1
    63   19   60 1
    64   19   61 1
    65   20   62 1
    66   21   63 1
    67   23   64 1
    68   23   65 1
    69   24   66 1
    70   24   67 1
    71   25   68 1
    72   25   69 1
    73   26   70 1
    74   26   71 1
    75   27   72 1
    76   27   73 1
    77   28   74 1
    78   31   75 1
    79   31   76 1
    80   32   77 1
    81   32   78 1
    82   33   79 1
    83   34   80 1
@<TRIPOS>MOLECULE
1a46_ligand_181
   80    83     0     0     0
SMALL
USER_CHARGES

mmff94s_NoEstat = 84.70
@<TRIPOS>ATOM
      1 C1          8.7841   12.3584   -5.8200 C.ar      1 <0>        -0.1300
      2 C2          9.2413   12.0197   -4.5466 C.ar      1 <0>        -0.1323
      3 C3          7.6186   11.7776   -6.3200 C.ar      1 <0>        -0.1309
      4 C4          8.5332   11.1000   -3.7731 C.ar      1 <0>        -0.1275
      5 C5          6.9105   10.8578   -5.5465 C.ar      1 <0>        -0.1272
      6 C6          7.3724   10.5251   -4.2781 C.ar      1 <0>        -0.0843
      7 C7          6.3227    7.0882   -2.8484 C.2       1 <0>         0.6709
      8 C8          5.2358    2.3798    1.5634 C.2       1 <0>         0.4867
      9 C9          5.6522    1.1980    2.3894 C.2       1 <0>         0.5883
     10 C10         6.5648    4.1956   -1.4701 C.2       1 <0>         0.6572
     11 C11         2.1315   -1.7630    4.1879 C.3       1 <0>        -0.0802
     12 C12         2.3788   -0.4451    4.9173 C.3       1 <0>        -0.0765
     13 C13         3.0395   -1.9195    2.9710 C.3       1 <0>        -0.0774
     14 C14         3.8535   -0.2727    5.2836 C.3       1 <0>        -0.0953
     15 C15         4.5128   -1.7440    3.3420 C.3       1 <0>        -0.0906
     16 C16         5.9150    3.5956   -3.8160 C.3       1 <0>        -0.0871
     17 C17         6.9686    7.7509   -5.1976 C.3       1 <0>        -0.0716
     18 C18         7.1782    4.0100   -4.5681 C.3       1 <0>         0.1333
     19 C19         6.8896    6.2440   -5.4973 C.3       1 <0>         0.1246
     20 C20         5.8189    4.6139   -2.6998 C.3       1 <0>         0.0606
     21 C21         4.7887   -0.4252    4.0765 C.3       1 <0>         0.1012
     22 C22         7.0990    8.1048   -3.6974 C.3       1 <0>         0.1554
     23 C23         6.6107    9.5357   -3.4460 C.3       1 <0>        -0.0356
     24 C24         6.0158    5.3379    2.0114 C.3       1 <0>        -0.0795
     25 C25         6.7209    6.4716    2.7653 C.3       1 <0>        -0.1203
     26 C26         6.9719    4.2276    1.5544 C.3       1 <0>        -0.0920
     27 C27         5.7742    7.5909    3.1979 C.3       1 <0>         0.1502
     28 C28         6.2906    3.1130    0.7514 C.3       1 <0>         0.0224
     29 N1          6.5058    5.7713   -3.2406 N.am      1 <0>        -0.3553
     30 N2          7.3227    5.4587   -4.3431 N.3       1 <0>        -0.4320
     31 N3          8.4993    8.0079   -3.2602 N.3       1 <0>        -0.9031
     32 N4          6.5168    8.6391    3.8900 N.3       1 <0>        -0.9068
     33 N5          4.6259    0.7077    3.1628 N.am      1 <0>        -0.5526
     34 N6          5.7762    3.5917   -0.5046 N.am      1 <0>        -0.5576
     35 O1          5.6162    7.4259   -1.8987 O.2       1 <0>        -0.6710
     36 O2          4.0675    2.7325    1.6631 O.2       1 <0>        -0.4901
     37 O3          6.8111    0.8244    2.3100 O.2       1 <0>        -0.5902
     38 O4          7.7705    4.4014   -1.3956 O.2       1 <0>        -0.5833
     39 H1          9.3355   13.0745   -6.4223 H         1 <0>         0.1320
     40 H2         10.1488   12.4721   -4.1574 H         1 <0>         0.1324
     41 H3          7.2628   12.0413   -7.3117 H         1 <0>         0.1328
     42 H4          8.8970   10.8421   -2.7820 H         1 <0>         0.1324
     43 H5          6.0035   10.4103   -5.9443 H         1 <0>         0.1434
     44 H6          2.3044   -2.5975    4.8787 H         1 <0>         0.0405
     45 H7          1.0827   -1.8207    3.8755 H         1 <0>         0.0421
     46 H8          2.0536    0.3896    4.2846 H         1 <0>         0.0362
     47 H9          1.7685   -0.4091    5.8271 H         1 <0>         0.0439
     48 H10         2.8890   -2.9095    2.5254 H         1 <0>         0.0350
     49 H11         2.7588   -1.1830    2.2084 H         1 <0>         0.0428
     50 H12         3.9963    0.7098    5.7496 H         1 <0>         0.0663
     51 H13         4.1209   -1.0239    6.0377 H         1 <0>         0.0466
     52 H14         4.8181   -2.5798    3.9844 H         1 <0>         0.0493
     53 H15         5.1225   -1.8035    2.4322 H         1 <0>         0.0520
     54 H16         5.0489    3.6975   -4.4816 H         1 <0>         0.0915
     55 H17         5.9620    2.5605   -3.4641 H         1 <0>         0.0601
     56 H18         7.8089    8.1894   -5.7531 H         1 <0>         0.0688
     57 H19         6.0643    8.2210   -5.6074 H         1 <0>         0.0630
     58 H20         8.0462    3.5082   -4.1236 H         1 <0>         0.0807
     59 H21         7.1438    3.7229   -5.6248 H         1 <0>         0.0380
     60 H22         5.8587    5.9894   -5.7800 H         1 <0>         0.0484
     61 H23         7.5203    6.0225   -6.3666 H         1 <0>         0.0697
     62 H24         4.7909    4.8594   -2.4187 H         1 <0>         0.0843
     63 H25         5.8317   -0.3960    4.4085 H         1 <0>         0.0831
     64 H26         6.7207    9.7666   -2.3849 H         1 <0>         0.0704
     65 H27         5.5439    9.5911   -3.6710 H         1 <0>         0.0718
     66 H28         5.2579    4.9142    2.6804 H         1 <0>         0.0606
     67 H29         5.4809    5.7546    1.1500 H         1 <0>         0.0458
     68 H30         7.2000    6.0392    3.6534 H         1 <0>         0.0375
     69 H31         7.5258    6.8807    2.1417 H         1 <0>         0.0392
     70 H32         7.4599    3.7926    2.4354 H         1 <0>         0.0606
     71 H33         7.7645    4.6634    0.9347 H         1 <0>         0.0579
     72 H34         4.9986    7.1962    3.8630 H         1 <0>         0.0571
     73 H35         5.2784    8.0349    2.3297 H         1 <0>         0.0503
     74 H36         7.0421    2.3587    0.4881 H         1 <0>         0.0993
     75 H37         9.0611    7.2946   -3.6639 H         1 <0>         0.3700
     76 H38         8.7654    8.5137   -2.4473 H         1 <0>         0.3660
     77 H39         5.9996    9.3711    4.3277 H         1 <0>         0.3465
     78 H40         7.4997    8.7018    3.7315 H         1 <0>         0.3446
     79 H41         3.7145    1.1511    3.0972 H         1 <0>         0.3148
     80 H42         4.7816    3.4809   -0.6931 H         1 <0>         0.3220
@<TRIPOS>BOND
     1    1    2 ar
     2    1    3 ar
     3    2    4 ar
     4    3    5 ar
     5    4    6 ar
     6    5    6 ar
     7    6   23 1
     8    7   22 1
     9    7   29 am
    10    7   35 2
    11    8    9 1
    12    8   28 1
    13    8   36 2
    14    9   33 am
    15    9   37 2
    16   10   20 1
    17   10   34 am
    18   10   38 2
    19   11   12 1
    20   11   13 1
    21   12   14 1
    22   13   15 1
    23   14   21 1
    24   15   21 1
    25   16   18 1
    26   16   20 1
    27   17   19 1
    28   17   22 1
    29   18   30 1
    30   19   30 1
    31   20   29 1
    32   21   33 1
    33   22   23 1
    34   22   31 1
    35   24   25 1
    36   24   26 1
    37   25   27 1
    38   26   28 1
    39   27   32 1
    40   28   34 1
    41   29   30 1
    42    1   39 1
    43    2   40 1
    44    3   41 1
    45    4   42 1
    46    5   43 1
    47   11   44 1
    48   11   45 1
    49   12   46 1
    50   12   47 1
    51   13   48 1
    52   13   49 1
    53   14   50 1
    54   14   51 1
    55   15   52 1
    56   15   53 1
    57   16   54 1
    58   16   55 1
    59   17   56 1
    60   17   57 1
    61   18   58 1
    62   18   59 1
    63   19   60 1
    64   19   61 1
    65   20   62 1
    66   21   63 1
    67   23   64 1
    68   23   65 1
    69   24   66 1
    70   24   67 1
    71   25   68 1
    72   25   69 1
    73   26   70 1
    74   26   71 1
    75   27   72 1
    76   27   73 1
    77   28   74 1
    78   31   75 1
    79   31   76 1
    80   32   77 1
    81   32   78 1
    82   33   79 1
    83   34   80 1
@<TRIPOS>MOLECULE
1a46_ligand_182
   80    83     0     0     0
SMALL
USER_CHARGES

mmff94s_NoEstat = 84.70
@<TRIPOS>ATOM
      1 C1         -4.4072   -3.0319  -14.4211 C.ar      1 <0>        -0.1300
      2 C2         -3.1014   -2.5683  -14.5810 C.ar      1 <0>        -0.1323
      3 C3         -5.2666   -2.3997  -13.5224 C.ar      1 <0>        -0.1309
      4 C4         -2.6549   -1.4727  -13.8421 C.ar      1 <0>        -0.1275
      5 C5         -4.8200   -1.3041  -12.7835 C.ar      1 <0>        -0.1272
      6 C6         -3.5171   -0.8478  -12.9482 C.ar      1 <0>        -0.0843
      7 C7         -1.9267    1.0916  -10.0042 C.2       1 <0>         0.6709
      8 C8          2.7796    3.2097   -6.1637 C.2       1 <0>         0.4867
      9 C9          4.2189    2.8058   -6.2975 C.2       1 <0>         0.5883
     10 C10         0.2181    1.9581   -7.7739 C.2       1 <0>         0.6572
     11 C11         8.7390    2.1665   -3.4036 C.3       1 <0>        -0.0802
     12 C12         8.5586    3.0794   -4.6132 C.3       1 <0>        -0.0765
     13 C13         7.8654    0.9193   -3.5041 C.3       1 <0>        -0.0774
     14 C14         7.0903    3.4392   -4.8337 C.3       1 <0>        -0.0953
     15 C15         6.3962    1.2768   -3.7226 C.3       1 <0>        -0.0906
     16 C16        -1.6423    1.0361   -6.3687 C.3       1 <0>        -0.0871
     17 C17        -3.4475   -0.9240   -9.9997 C.3       1 <0>        -0.0716
     18 C18        -1.5606   -0.4439   -6.7372 C.3       1 <0>         0.1333
     19 C19        -3.1819   -0.9495   -8.4846 C.3       1 <0>         0.1246
     20 C20        -1.2590    1.7411   -7.6524 C.3       1 <0>         0.0606
     21 C21         6.2184    2.1837   -4.9453 C.3       1 <0>         0.1012
     22 C22        -2.4199   -0.1108  -10.8216 C.3       1 <0>         0.1554
     23 C23        -3.0368    0.3307  -12.1535 C.3       1 <0>        -0.0356
     24 C24         1.4445    5.5921   -8.9731 C.3       1 <0>        -0.0795
     25 C25         1.6370    7.0835   -9.2718 C.3       1 <0>        -0.1203
     26 C26         2.1570    5.1335   -7.6933 C.3       1 <0>        -0.0920
     27 C27         0.9502    7.5360  -10.5601 C.3       1 <0>         0.1502
     28 C28         2.0196    3.6328   -7.4097 C.3       1 <0>         0.0224
     29 N1         -1.6352    0.7917   -8.6825 N.am      1 <0>        -0.3553
     30 N2         -1.8196   -0.5121   -8.1858 N.3       1 <0>        -0.4320
     31 N3         -1.2259   -0.9195  -11.1076 N.3       1 <0>        -0.9031
     32 N4          1.1922    8.9569  -10.7874 N.3       1 <0>        -0.9068
     33 N5          4.8139    2.5648   -5.0811 N.am      1 <0>        -0.5526
     34 N6          0.6426    3.2153   -7.3763 N.am      1 <0>        -0.5576
     35 O1         -1.7935    2.2123  -10.4955 O.2       1 <0>        -0.6710
     36 O2          2.3266    3.2509   -5.0269 O.2       1 <0>        -0.4901
     37 O3          4.6970    2.7561   -7.4190 O.2       1 <0>        -0.5902
     38 O4          0.9290    1.0536   -8.1959 O.2       1 <0>        -0.5833
     39 H1         -4.7549   -3.8850  -14.9963 H         1 <0>         0.1320
     40 H2         -2.4324   -3.0606  -15.2808 H         1 <0>         0.1324
     41 H3         -6.2832   -2.7609  -13.3979 H         1 <0>         0.1328
     42 H4         -1.6358   -1.1186  -13.9733 H         1 <0>         0.1324
     43 H5         -5.4966   -0.8180  -12.0857 H         1 <0>         0.1434
     44 H6          9.7913    1.8735   -3.3164 H         1 <0>         0.0405
     45 H7          8.4833    2.7176   -2.4903 H         1 <0>         0.0421
     46 H8          9.1455    3.9945   -4.4750 H         1 <0>         0.0362
     47 H9          8.9496    2.5810   -5.5087 H         1 <0>         0.0439
     48 H10         8.2153    0.2934   -4.3342 H         1 <0>         0.0350
     49 H11         7.9674    0.3236   -2.5899 H         1 <0>         0.0428
     50 H12         6.7403    4.0666   -4.0033 H         1 <0>         0.0663
     51 H13         6.9925    4.0452   -5.7427 H         1 <0>         0.0466
     52 H14         5.8092    0.3589   -3.8487 H         1 <0>         0.0493
     53 H15         6.0049    1.7750   -2.8258 H         1 <0>         0.0520
     54 H16        -2.6779    1.2865   -6.1074 H         1 <0>         0.0915
     55 H17        -0.9998    1.2887   -5.5196 H         1 <0>         0.0601
     56 H18        -3.4897   -1.9539  -10.3797 H         1 <0>         0.0688
     57 H19        -4.4523   -0.5086  -10.1558 H         1 <0>         0.0630
     58 H20        -0.5419   -0.8072   -6.5560 H         1 <0>         0.0807
     59 H21        -2.2364   -1.0589   -6.1327 H         1 <0>         0.0380
     60 H22        -3.9187   -0.3080   -7.9817 H         1 <0>         0.0484
     61 H23        -3.3442   -1.9688   -8.1140 H         1 <0>         0.0697
     62 H24        -1.7661    2.6997   -7.7936 H         1 <0>         0.0843
     63 H25         6.4768    1.6324   -5.8568 H         1 <0>         0.0831
     64 H26        -2.2923    0.8934  -12.7197 H         1 <0>         0.0704
     65 H27        -3.8625    1.0157  -11.9521 H         1 <0>         0.0718
     66 H28         0.3683    5.4079   -8.8774 H         1 <0>         0.0606
     67 H29         1.7918    5.0040   -9.8306 H         1 <0>         0.0458
     68 H30         1.2300    7.6523   -8.4256 H         1 <0>         0.0375
     69 H31         2.7093    7.3123   -9.3176 H         1 <0>         0.0392
     70 H32         1.7604    5.7005   -6.8419 H         1 <0>         0.0606
     71 H33         3.2243    5.3739   -7.7660 H         1 <0>         0.0579
     72 H34        -0.1287    7.3572  -10.4981 H         1 <0>         0.0571
     73 H35         1.3345    6.9786  -11.4193 H         1 <0>         0.0503
     74 H36         2.4714    3.0747   -8.2388 H         1 <0>         0.0993
     75 H37        -0.9249   -1.5612  -10.4112 H         1 <0>         0.3700
     76 H38        -0.6609   -0.6518  -11.8799 H         1 <0>         0.3660
     77 H39         0.7014    9.4044  -11.5317 H         1 <0>         0.3465
     78 H40         1.9755    9.3785  -10.3359 H         1 <0>         0.3446
     79 H41         4.2523    2.6558   -4.2398 H         1 <0>         0.3148
     80 H42        -0.0552    3.8781   -7.0434 H         1 <0>         0.3220
@<TRIPOS>BOND
     1    1    2 ar
     2    1    3 ar
     3    2    4 ar
     4    3    5 ar
     5    4    6 ar
     6    5    6 ar
     7    6   23 1
     8    7   22 1
     9    7   29 am
    10    7   35 2
    11    8    9 1
    12    8   28 1
    13    8   36 2
    14    9   33 am
    15    9   37 2
    16   10   20 1
    17   10   34 am
    18   10   38 2
    19   11   12 1
    20   11   13 1
    21   12   14 1
    22   13   15 1
    23   14   21 1
    24   15   21 1
    25   16   18 1
    26   16   20 1
    27   17   19 1
    28   17   22 1
    29   18   30 1
    30   19   30 1
    31   20   29 1
    32   21   33 1
    33   22   23 1
    34   22   31 1
    35   24   25 1
    36   24   26 1
    37   25   27 1
    38   26   28 1
    39   27   32 1
    40   28   34 1
    41   29   30 1
    42    1   39 1
    43    2   40 1
    44    3   41 1
    45    4   42 1
    46    5   43 1
    47   11   44 1
    48   11   45 1
    49   12   46 1
    50   12   47 1
    51   13   48 1
    52   13   49 1
    53   14   50 1
    54   14   51 1
    55   15   52 1
    56   15   53 1
    57   16   54 1
    58   16   55 1
    59   17   56 1
    60   17   57 1
    61   18   58 1
    62   18   59 1
    63   19   60 1
    64   19   61 1
    65   20   62 1
    66   21   63 1
    67   23   64 1
    68   23   65 1
    69   24   66 1
    70   24   67 1
    71   25   68 1
    72   25   69 1
    73   26   70 1
    74   26   71 1
    75   27   72 1
    76   27   73 1
    77   28   74 1
    78   31   75 1
    79   31   76 1
    80   32   77 1
    81   32   78 1
    82   33   79 1
    83   34   80 1
@<TRIPOS>MOLECULE
1a46_ligand_183
   80    83     0     0     0
SMALL
USER_CHARGES

mmff94s_NoEstat = 84.73
@<TRIPOS>ATOM
      1 C1         -4.4072   -3.0319  -14.4211 C.ar      1 <0>        -0.1300
      2 C2         -3.1014   -2.5683  -14.5810 C.ar      1 <0>        -0.1323
      3 C3         -5.2666   -2.3997  -13.5224 C.ar      1 <0>        -0.1309
      4 C4         -2.6549   -1.4727  -13.8421 C.ar      1 <0>        -0.1275
      5 C5         -4.8200   -1.3041  -12.7835 C.ar      1 <0>        -0.1272
      6 C6         -3.5171   -0.8478  -12.9482 C.ar      1 <0>        -0.0843
      7 C7         -1.9267    1.0916  -10.0042 C.2       1 <0>         0.6709
      8 C8          2.7796    3.2097   -6.1637 C.2       1 <0>         0.4867
      9 C9          4.2587    3.4565   -6.1009 C.2       1 <0>         0.5883
     10 C10         0.2181    1.9581   -7.7739 C.2       1 <0>         0.6572
     11 C11         9.0387    1.4136   -7.0808 C.3       1 <0>        -0.0802
     12 C12         8.3924    1.8186   -8.4026 C.3       1 <0>        -0.0765
     13 C13         8.5796    2.3073   -5.9322 C.3       1 <0>        -0.0774
     14 C14         6.8688    1.8565   -8.2962 C.3       1 <0>        -0.0953
     15 C15         7.0563    2.3465   -5.8229 C.3       1 <0>        -0.0906
     16 C16        -1.6423    1.0361   -6.3687 C.3       1 <0>        -0.0871
     17 C17        -3.4475   -0.9240   -9.9997 C.3       1 <0>        -0.0716
     18 C18        -1.5606   -0.4439   -6.7372 C.3       1 <0>         0.1333
     19 C19        -3.1819   -0.9495   -8.4846 C.3       1 <0>         0.1246
     20 C20        -1.2590    1.7411   -7.6524 C.3       1 <0>         0.0606
     21 C21         6.4119    2.7646   -7.1492 C.3       1 <0>         0.1012
     22 C22        -2.4199   -0.1108  -10.8216 C.3       1 <0>         0.1554
     23 C23        -3.0368    0.3307  -12.1535 C.3       1 <0>        -0.0356
     24 C24         1.5857    6.0302   -6.5865 C.3       1 <0>        -0.0795
     25 C25         1.6811    7.5259   -6.9095 C.3       1 <0>        -0.1203
     26 C26         2.1570    5.1335   -7.6933 C.3       1 <0>        -0.0920
     27 C27         1.0885    8.4192   -5.8200 C.3       1 <0>         0.1502
     28 C28         2.0196    3.6328   -7.4097 C.3       1 <0>         0.0224
     29 N1         -1.6352    0.7917   -8.6825 N.am      1 <0>        -0.3553
     30 N2         -1.8196   -0.5121   -8.1858 N.3       1 <0>        -0.4320
     31 N3         -1.2259   -0.9195  -11.1076 N.3       1 <0>        -0.9031
     32 N4          1.1980    9.8225   -6.2046 N.3       1 <0>        -0.9068
     33 N5          4.9558    2.7197   -7.0299 N.am      1 <0>        -0.5526
     34 N6          0.6426    3.2153   -7.3763 N.am      1 <0>        -0.5576
     35 O1         -1.7935    2.2123  -10.4955 O.2       1 <0>        -0.6710
     36 O2          2.2586    2.7495   -5.1557 O.2       1 <0>        -0.4901
     37 O3          4.6736    4.2333   -5.2564 O.2       1 <0>        -0.5902
     38 O4          0.9290    1.0536   -8.1959 O.2       1 <0>        -0.5833
     39 H1         -4.7549   -3.8850  -14.9963 H         1 <0>         0.1320
     40 H2         -2.4324   -3.0606  -15.2808 H         1 <0>         0.1324
     41 H3         -6.2832   -2.7609  -13.3979 H         1 <0>         0.1328
     42 H4         -1.6358   -1.1186  -13.9733 H         1 <0>         0.1324
     43 H5         -5.4966   -0.8180  -12.0857 H         1 <0>         0.1434
     44 H6          8.7838    0.3706   -6.8552 H         1 <0>         0.0405
     45 H7         10.1296    1.4634   -7.1734 H         1 <0>         0.0421
     46 H8          8.7615    2.8074   -8.7018 H         1 <0>         0.0362
     47 H9          8.6891    1.1153   -9.1887 H         1 <0>         0.0439
     48 H10         9.0074    1.9462   -4.9901 H         1 <0>         0.0350
     49 H11         8.9599    3.3246   -6.0869 H         1 <0>         0.0428
     50 H12         6.4426    2.2061   -9.2442 H         1 <0>         0.0663
     51 H13         6.4886    0.8381   -8.1423 H         1 <0>         0.0466
     52 H14         6.6868    1.3574   -5.5221 H         1 <0>         0.0493
     53 H15         6.7629    3.0425   -5.0277 H         1 <0>         0.0520
     54 H16        -2.6779    1.2865   -6.1074 H         1 <0>         0.0915
     55 H17        -0.9998    1.2887   -5.5196 H         1 <0>         0.0601
     56 H18        -3.4897   -1.9539  -10.3797 H         1 <0>         0.0688
     57 H19        -4.4523   -0.5086  -10.1558 H         1 <0>         0.0630
     58 H20        -0.5419   -0.8072   -6.5560 H         1 <0>         0.0807
     59 H21        -2.2364   -1.0589   -6.1327 H         1 <0>         0.0380
     60 H22        -3.9187   -0.3080   -7.9817 H         1 <0>         0.0484
     61 H23        -3.3442   -1.9688   -8.1140 H         1 <0>         0.0697
     62 H24        -1.7661    2.6997   -7.7936 H         1 <0>         0.0843
     63 H25         6.6697    3.8057   -7.3750 H         1 <0>         0.0831
     64 H26        -2.2923    0.8934  -12.7197 H         1 <0>         0.0704
     65 H27        -3.8625    1.0157  -11.9521 H         1 <0>         0.0718
     66 H28         2.1358    5.8550   -5.6547 H         1 <0>         0.0606
     67 H29         0.5392    5.7688   -6.3906 H         1 <0>         0.0458
     68 H30         2.7419    7.7748   -7.0444 H         1 <0>         0.0375
     69 H31         1.1870    7.7255   -7.8687 H         1 <0>         0.0392
     70 H32         3.2164    5.3787   -7.8393 H         1 <0>         0.0606
     71 H33         1.6466    5.3535   -8.6384 H         1 <0>         0.0579
     72 H34         1.6137    8.2608   -4.8719 H         1 <0>         0.0571
     73 H35         0.0315    8.1861   -5.6617 H         1 <0>         0.0503
     74 H36         2.4714    3.0747   -8.2388 H         1 <0>         0.0993
     75 H37        -0.9249   -1.5612  -10.4112 H         1 <0>         0.3700
     76 H38        -0.6609   -0.6518  -11.8799 H         1 <0>         0.3660
     77 H39         0.9557   10.5154   -5.5293 H         1 <0>         0.3465
     78 H40         1.3102   10.0373   -7.1723 H         1 <0>         0.3446
     79 H41         4.4356    2.1176   -7.6610 H         1 <0>         0.3148
     80 H42        -0.0552    3.8781   -7.0434 H         1 <0>         0.3220
@<TRIPOS>BOND
     1    1    2 ar
     2    1    3 ar
     3    2    4 ar
     4    3    5 ar
     5    4    6 ar
     6    5    6 ar
     7    6   23 1
     8    7   22 1
     9    7   29 am
    10    7   35 2
    11    8    9 1
    12    8   28 1
    13    8   36 2
    14    9   33 am
    15    9   37 2
    16   10   20 1
    17   10   34 am
    18   10   38 2
    19   11   12 1
    20   11   13 1
    21   12   14 1
    22   13   15 1
    23   14   21 1
    24   15   21 1
    25   16   18 1
    26   16   20 1
    27   17   19 1
    28   17   22 1
    29   18   30 1
    30   19   30 1
    31   20   29 1
    32   21   33 1
    33   22   23 1
    34   22   31 1
    35   24   25 1
    36   24   26 1
    37   25   27 1
    38   26   28 1
    39   27   32 1
    40   28   34 1
    41   29   30 1
    42    1   39 1
    43    2   40 1
    44    3   41 1
    45    4   42 1
    46    5   43 1
    47   11   44 1
    48   11   45 1
    49   12   46 1
    50   12   47 1
    51   13   48 1
    52   13   49 1
    53   14   50 1
    54   14   51 1
    55   15   52 1
    56   15   53 1
    57   16   54 1
    58   16   55 1
    59   17   56 1
    60   17   57 1
    61   18   58 1
    62   18   59 1
    63   19   60 1
    64   19   61 1
    65   20   62 1
    66   21   63 1
    67   23   64 1
    68   23   65 1
    69   24   66 1
    70   24   67 1
    71   25   68 1
    72   25   69 1
    73   26   70 1
    74   26   71 1
    75   27   72 1
    76   27   73 1
    77   28   74 1
    78   31   75 1
    79   31   76 1
    80   32   77 1
    81   32   78 1
    82   33   79 1
    83   34   80 1
@<TRIPOS>MOLECULE
1a46_ligand_184
   80    83     0     0     0
SMALL
USER_CHARGES

mmff94s_NoEstat = 84.75
@<TRIPOS>ATOM
      1 C1          9.0003   12.0144   -5.4225 C.ar      1 <0>        -0.1300
      2 C2          9.4537   11.5665   -4.1818 C.ar      1 <0>        -0.1323
      3 C3          7.8120   11.5127   -5.9535 C.ar      1 <0>        -0.1309
      4 C4          8.7189   10.6167   -3.4722 C.ar      1 <0>        -0.1275
      5 C5          7.0772   10.5629   -5.2439 C.ar      1 <0>        -0.1272
      6 C6          7.5355   10.1211   -4.0078 C.ar      1 <0>        -0.0843
      7 C7          6.3757    6.6257   -2.8269 C.2       1 <0>         0.6709
      8 C8          5.2358    2.3798    1.5634 C.2       1 <0>         0.4867
      9 C9          5.3950    2.3039    3.0538 C.2       1 <0>         0.5883
     10 C10         6.5256    3.6321   -1.6689 C.2       1 <0>         0.6572
     11 C11         8.2255   -1.3143    4.8687 C.3       1 <0>        -0.0802
     12 C12         6.7106   -1.2204    4.7072 C.3       1 <0>        -0.0765
     13 C13         8.9327   -0.0675    4.3441 C.3       1 <0>        -0.0774
     14 C14         6.1552    0.0559    5.3406 C.3       1 <0>        -0.0953
     15 C15         8.3722    1.2061    4.9787 C.3       1 <0>        -0.0906
     16 C16         5.8400    3.2307   -4.0468 C.3       1 <0>        -0.0871
     17 C17         7.0291    7.4385   -5.1265 C.3       1 <0>        -0.0716
     18 C18         7.1120    3.6562   -4.7776 C.3       1 <0>         0.1333
     19 C19         6.8955    5.9616   -5.5361 C.3       1 <0>         0.1246
     20 C20         5.7868    4.1659   -2.8575 C.3       1 <0>         0.0606
     21 C21         6.8497    1.3253    4.8295 C.3       1 <0>         0.1012
     22 C22         7.1815    7.6752   -3.6055 C.3       1 <0>         0.1554
     23 C23         6.7451    9.0995   -3.2444 C.3       1 <0>        -0.0356
     24 C24         8.0800    4.9598    0.7851 C.3       1 <0>        -0.0795
     25 C25         8.7880    6.0338    1.6192 C.3       1 <0>        -0.1203
     26 C26         6.9719    4.2276    1.5544 C.3       1 <0>        -0.0920
     27 C27         9.9095    6.7454    0.8629 C.3       1 <0>         0.1502
     28 C28         6.2906    3.1130    0.7514 C.3       1 <0>         0.0224
     29 N1          6.5101    5.3360   -3.3173 N.am      1 <0>        -0.3553
     30 N2          7.3084    5.0783   -4.4472 N.3       1 <0>        -0.4320
     31 N3          8.5804    7.4980   -3.1893 N.3       1 <0>        -0.9031
     32 N4         10.5470    7.7366    1.7233 N.3       1 <0>        -0.9068
     33 N5          6.4949    1.5685    3.4295 N.am      1 <0>        -0.5526
     34 N6          5.7762    3.5917   -0.5046 N.am      1 <0>        -0.5576
     35 O1          5.6876    6.9159   -1.8485 O.2       1 <0>        -0.6710
     36 O2          4.2060    1.9080    1.0985 O.2       1 <0>        -0.4901
     37 O3          4.5583    2.8586    3.7473 O.2       1 <0>        -0.5902
     38 O4          7.6924    3.2783   -1.7917 O.2       1 <0>        -0.5833
     39 H1          9.5724   12.7539   -5.9752 H         1 <0>         0.1320
     40 H2         10.3789   11.9573   -3.7685 H         1 <0>         0.1324
     41 H3          7.4591   11.8615   -6.9197 H         1 <0>         0.1328
     42 H4          9.0800   10.2736   -2.5062 H         1 <0>         0.1324
     43 H5          6.1526   10.1776   -5.6655 H         1 <0>         0.1434
     44 H6          8.4691   -1.4496    5.9298 H         1 <0>         0.0405
     45 H7          8.5986   -2.1995    4.3412 H         1 <0>         0.0421
     46 H8          6.4541   -1.2475    3.6412 H         1 <0>         0.0362
     47 H9          6.2374   -2.0946    5.1688 H         1 <0>         0.0439
     48 H10        10.0063   -0.1392    4.5524 H         1 <0>         0.0350
     49 H11         8.8243   -0.0173    3.2539 H         1 <0>         0.0428
     50 H12         5.0767    0.1130    5.1494 H         1 <0>         0.0663
     51 H13         6.2821   -0.0051    6.4290 H         1 <0>         0.0466
     52 H14         8.6266    1.2112    6.0463 H         1 <0>         0.0493
     53 H15         8.8643    2.0779    4.5308 H         1 <0>         0.0520
     54 H16         4.9736    3.4114   -4.6951 H         1 <0>         0.0915
     55 H17         5.8531    2.1713   -3.7729 H         1 <0>         0.0601
     56 H18         7.8805    7.8879   -5.6555 H         1 <0>         0.0688
     57 H19         6.1391    7.9685   -5.4921 H         1 <0>         0.0630
     58 H20         7.9647    3.0932   -4.3794 H         1 <0>         0.0807
     59 H21         7.0607    3.4497   -5.8523 H         1 <0>         0.0380
     60 H22         5.8545    5.7643   -5.8276 H         1 <0>         0.0484
     61 H23         7.5124    5.7838   -6.4252 H         1 <0>         0.0697
     62 H24         4.7698    4.4250   -2.5496 H         1 <0>         0.0843
     63 H25         6.4887    2.1963    5.3865 H         1 <0>         0.0831
     64 H26         6.8700    9.2469   -2.1701 H         1 <0>         0.0704
     65 H27         5.6795    9.2080   -3.4549 H         1 <0>         0.0718
     66 H28         7.6494    5.4516   -0.0948 H         1 <0>         0.0606
     67 H29         8.8216    4.2418    0.4157 H         1 <0>         0.0458
     68 H30         8.0356    6.7709    1.9287 H         1 <0>         0.0375
     69 H31         9.1825    5.5824    2.5383 H         1 <0>         0.0392
     70 H32         6.2171    4.9575    1.8728 H         1 <0>         0.0606
     71 H33         7.3929    3.7874    2.4660 H         1 <0>         0.0579
     72 H34         9.5108    7.2416   -0.0285 H         1 <0>         0.0571
     73 H35        10.6706    6.0303    0.5375 H         1 <0>         0.0503
     74 H36         7.0421    2.3587    0.4881 H         1 <0>         0.0993
     75 H37         9.1142    6.7979   -3.6499 H         1 <0>         0.3700
     76 H38         8.8693    7.9327   -2.3437 H         1 <0>         0.3660
     77 H39        11.2163    8.3531    1.3147 H         1 <0>         0.3465
     78 H40        10.4498    7.6340    2.7108 H         1 <0>         0.3446
     79 H41         7.0876    1.1766    2.7037 H         1 <0>         0.3148
     80 H42         4.8120    3.9176   -0.5391 H         1 <0>         0.3220
@<TRIPOS>BOND
     1    1    2 ar
     2    1    3 ar
     3    2    4 ar
     4    3    5 ar
     5    4    6 ar
     6    5    6 ar
     7    6   23 1
     8    7   22 1
     9    7   29 am
    10    7   35 2
    11    8    9 1
    12    8   28 1
    13    8   36 2
    14    9   33 am
    15    9   37 2
    16   10   20 1
    17   10   34 am
    18   10   38 2
    19   11   12 1
    20   11   13 1
    21   12   14 1
    22   13   15 1
    23   14   21 1
    24   15   21 1
    25   16   18 1
    26   16   20 1
    27   17   19 1
    28   17   22 1
    29   18   30 1
    30   19   30 1
    31   20   29 1
    32   21   33 1
    33   22   23 1
    34   22   31 1
    35   24   25 1
    36   24   26 1
    37   25   27 1
    38   26   28 1
    39   27   32 1
    40   28   34 1
    41   29   30 1
    42    1   39 1
    43    2   40 1
    44    3   41 1
    45    4   42 1
    46    5   43 1
    47   11   44 1
    48   11   45 1
    49   12   46 1
    50   12   47 1
    51   13   48 1
    52   13   49 1
    53   14   50 1
    54   14   51 1
    55   15   52 1
    56   15   53 1
    57   16   54 1
    58   16   55 1
    59   17   56 1
    60   17   57 1
    61   18   58 1
    62   18   59 1
    63   19   60 1
    64   19   61 1
    65   20   62 1
    66   21   63 1
    67   23   64 1
    68   23   65 1
    69   24   66 1
    70   24   67 1
    71   25   68 1
    72   25   69 1
    73   26   70 1
    74   26   71 1
    75   27   72 1
    76   27   73 1
    77   28   74 1
    78   31   75 1
    79   31   76 1
    80   32   77 1
    81   32   78 1
    82   33   79 1
    83   34   80 1
@<TRIPOS>MOLECULE
1a46_ligand_185
   80    83     0     0     0
SMALL
USER_CHARGES

mmff94s_NoEstat = 84.77
@<TRIPOS>ATOM
      1 C1          9.0003   12.0144   -5.4225 C.ar      1 <0>        -0.1300
      2 C2          9.4537   11.5665   -4.1818 C.ar      1 <0>        -0.1323
      3 C3          7.8120   11.5127   -5.9535 C.ar      1 <0>        -0.1309
      4 C4          8.7189   10.6167   -3.4722 C.ar      1 <0>        -0.1275
      5 C5          7.0772   10.5629   -5.2439 C.ar      1 <0>        -0.1272
      6 C6          7.5355   10.1211   -4.0078 C.ar      1 <0>        -0.0843
      7 C7          6.3757    6.6257   -2.8269 C.2       1 <0>         0.6709
      8 C8          5.2358    2.3798    1.5634 C.2       1 <0>         0.4867
      9 C9          3.8230    2.3549    1.0577 C.2       1 <0>         0.5883
     10 C10         6.5256    3.6321   -1.6689 C.2       1 <0>         0.6572
     11 C11         1.4181    6.7678    0.8940 C.3       1 <0>        -0.0802
     12 C12         1.4560    5.8610    2.1213 C.3       1 <0>        -0.0765
     13 C13         2.2461    6.2031   -0.2573 C.3       1 <0>        -0.0774
     14 C14         1.0454    4.4289    1.7758 C.3       1 <0>        -0.0953
     15 C15         1.8333    4.7703   -0.5974 C.3       1 <0>        -0.0906
     16 C16         5.8400    3.2307   -4.0468 C.3       1 <0>        -0.0871
     17 C17         7.0291    7.4385   -5.1265 C.3       1 <0>        -0.0716
     18 C18         7.1120    3.6562   -4.7776 C.3       1 <0>         0.1333
     19 C19         6.8955    5.9616   -5.5361 C.3       1 <0>         0.1246
     20 C20         5.7868    4.1659   -2.8575 C.3       1 <0>         0.0606
     21 C21         1.8637    3.8371    0.6204 C.3       1 <0>         0.1012
     22 C22         7.1815    7.6752   -3.6055 C.3       1 <0>         0.1554
     23 C23         6.7451    9.0995   -3.2444 C.3       1 <0>        -0.0356
     24 C24         7.6485    3.7409    2.8432 C.3       1 <0>        -0.0795
     25 C25         8.2774    4.8743    3.6620 C.3       1 <0>        -0.1203
     26 C26         6.9719    4.2276    1.5544 C.3       1 <0>        -0.0920
     27 C27         8.9284    4.3945    4.9589 C.3       1 <0>         0.1502
     28 C28         6.2906    3.1130    0.7514 C.3       1 <0>         0.0224
     29 N1          6.5101    5.3360   -3.3173 N.am      1 <0>        -0.3553
     30 N2          7.3084    5.0783   -4.4472 N.3       1 <0>        -0.4320
     31 N3          8.5804    7.4980   -3.1893 N.3       1 <0>        -0.9031
     32 N4         10.0019    3.4511    4.6645 N.3       1 <0>        -0.9068
     33 N5          3.2455    3.6032    1.0456 N.am      1 <0>        -0.5526
     34 N6          5.7762    3.5917   -0.5046 N.am      1 <0>        -0.5576
     35 O1          5.6876    6.9159   -1.8485 O.2       1 <0>        -0.6710
     36 O2          5.4669    1.7271    2.5732 O.2       1 <0>        -0.4901
     37 O3          3.3466    1.2762    0.7444 O.2       1 <0>        -0.5902
     38 O4          7.6924    3.2783   -1.7917 O.2       1 <0>        -0.5833
     39 H1          9.5724   12.7539   -5.9752 H         1 <0>         0.1320
     40 H2         10.3789   11.9573   -3.7685 H         1 <0>         0.1324
     41 H3          7.4591   11.8615   -6.9197 H         1 <0>         0.1328
     42 H4          9.0800   10.2736   -2.5062 H         1 <0>         0.1324
     43 H5          6.1526   10.1776   -5.6655 H         1 <0>         0.1434
     44 H6          0.3784    6.8907    0.5662 H         1 <0>         0.0405
     45 H7          1.7877    7.7645    1.1601 H         1 <0>         0.0421
     46 H8          2.4665    5.8646    2.5474 H         1 <0>         0.0362
     47 H9          0.7860    6.2585    2.8922 H         1 <0>         0.0439
     48 H10         2.1267    6.8389   -1.1420 H         1 <0>         0.0350
     49 H11         3.3094    6.2291    0.0101 H         1 <0>         0.0428
     50 H12         1.1447    3.8004    2.6691 H         1 <0>         0.0663
     51 H13        -0.0166    4.4224    1.4992 H         1 <0>         0.0466
     52 H14         0.8166    4.7834   -1.0104 H         1 <0>         0.0493
     53 H15         2.4912    4.3837   -1.3851 H         1 <0>         0.0520
     54 H16         4.9736    3.4114   -4.6951 H         1 <0>         0.0915
     55 H17         5.8531    2.1713   -3.7729 H         1 <0>         0.0601
     56 H18         7.8805    7.8879   -5.6555 H         1 <0>         0.0688
     57 H19         6.1391    7.9685   -5.4921 H         1 <0>         0.0630
     58 H20         7.9647    3.0932   -4.3794 H         1 <0>         0.0807
     59 H21         7.0607    3.4497   -5.8523 H         1 <0>         0.0380
     60 H22         5.8545    5.7643   -5.8276 H         1 <0>         0.0484
     61 H23         7.5124    5.7838   -6.4252 H         1 <0>         0.0697
     62 H24         4.7698    4.4250   -2.5496 H         1 <0>         0.0843
     63 H25         1.4635    2.8554    0.3463 H         1 <0>         0.0831
     64 H26         6.8700    9.2469   -2.1701 H         1 <0>         0.0704
     65 H27         5.6795    9.2080   -3.4549 H         1 <0>         0.0718
     66 H28         8.4445    3.0306    2.5915 H         1 <0>         0.0606
     67 H29         6.9275    3.2007    3.4679 H         1 <0>         0.0458
     68 H30         9.0354    5.3625    3.0356 H         1 <0>         0.0375
     69 H31         7.5157    5.6329    3.8824 H         1 <0>         0.0392
     70 H32         7.7210    4.7221    0.9235 H         1 <0>         0.0606
     71 H33         6.2174    4.9831    1.8035 H         1 <0>         0.0579
     72 H34         8.1846    3.9091    5.6001 H         1 <0>         0.0571
     73 H35         9.3517    5.2370    5.5137 H         1 <0>         0.0503
     74 H36         7.0421    2.3587    0.4881 H         1 <0>         0.0993
     75 H37         9.1142    6.7979   -3.6499 H         1 <0>         0.3700
     76 H38         8.8693    7.9327   -2.3437 H         1 <0>         0.3660
     77 H39        10.4299    2.9725    5.4279 H         1 <0>         0.3465
     78 H40        10.4049    3.4672    3.7521 H         1 <0>         0.3446
     79 H41         3.8022    4.3983    1.3448 H         1 <0>         0.3148
     80 H42         4.8120    3.9176   -0.5391 H         1 <0>         0.3220
@<TRIPOS>BOND
     1    1    2 ar
     2    1    3 ar
     3    2    4 ar
     4    3    5 ar
     5    4    6 ar
     6    5    6 ar
     7    6   23 1
     8    7   22 1
     9    7   29 am
    10    7   35 2
    11    8    9 1
    12    8   28 1
    13    8   36 2
    14    9   33 am
    15    9   37 2
    16   10   20 1
    17   10   34 am
    18   10   38 2
    19   11   12 1
    20   11   13 1
    21   12   14 1
    22   13   15 1
    23   14   21 1
    24   15   21 1
    25   16   18 1
    26   16   20 1
    27   17   19 1
    28   17   22 1
    29   18   30 1
    30   19   30 1
    31   20   29 1
    32   21   33 1
    33   22   23 1
    34   22   31 1
    35   24   25 1
    36   24   26 1
    37   25   27 1
    38   26   28 1
    39   27   32 1
    40   28   34 1
    41   29   30 1
    42    1   39 1
    43    2   40 1
    44    3   41 1
    45    4   42 1
    46    5   43 1
    47   11   44 1
    48   11   45 1
    49   12   46 1
    50   12   47 1
    51   13   48 1
    52   13   49 1
    53   14   50 1
    54   14   51 1
    55   15   52 1
    56   15   53 1
    57   16   54 1
    58   16   55 1
    59   17   56 1
    60   17   57 1
    61   18   58 1
    62   18   59 1
    63   19   60 1
    64   19   61 1
    65   20   62 1
    66   21   63 1
    67   23   64 1
    68   23   65 1
    69   24   66 1
    70   24   67 1
    71   25   68 1
    72   25   69 1
    73   26   70 1
    74   26   71 1
    75   27   72 1
    76   27   73 1
    77   28   74 1
    78   31   75 1
    79   31   76 1
    80   32   77 1
    81   32   78 1
    82   33   79 1
    83   34   80 1
@<TRIPOS>MOLECULE
1a46_ligand_186
   80    83     0     0     0
SMALL
USER_CHARGES

mmff94s_NoEstat = 84.77
@<TRIPOS>ATOM
      1 C1         -5.9518    1.0529  -15.7574 C.ar      1 <0>        -0.1300
      2 C2         -4.7078    1.6646  -15.9115 C.ar      1 <0>        -0.1323
      3 C3         -6.6077    1.1063  -14.5275 C.ar      1 <0>        -0.1309
      4 C4         -4.1196    2.3297  -14.8357 C.ar      1 <0>        -0.1275
      5 C5         -6.0195    1.7714  -13.4517 C.ar      1 <0>        -0.1272
      6 C6         -4.7793    2.3787  -13.6128 C.ar      1 <0>        -0.0843
      7 C7         -2.6173    2.8751  -10.4447 C.2       1 <0>         0.6709
      8 C8          2.7796    3.2097   -6.1637 C.2       1 <0>         0.4867
      9 C9          4.2189    2.8058   -6.2975 C.2       1 <0>         0.5883
     10 C10        -0.0591    2.8141   -8.5012 C.2       1 <0>         0.6572
     11 C11         7.4572   -1.5160   -6.0730 C.3       1 <0>        -0.0802
     12 C12         7.5662   -0.2563   -5.2184 C.3       1 <0>        -0.0765
     13 C13         6.9001   -1.2090   -7.4602 C.3       1 <0>        -0.0774
     14 C14         6.2334    0.4858   -5.1360 C.3       1 <0>        -0.0953
     15 C15         5.5662   -0.4685   -7.3802 C.3       1 <0>        -0.0906
     16 C16        -1.5879    1.1654   -7.3921 C.3       1 <0>        -0.0871
     17 C17        -4.1019    0.9486  -11.1228 C.3       1 <0>        -0.0716
     18 C18        -1.5823    0.0424   -8.4274 C.3       1 <0>         0.1333
     19 C19        -3.5290    0.2485   -9.8784 C.3       1 <0>         0.1246
     20 C20        -1.4789    2.4202   -8.2321 C.3       1 <0>         0.0606
     21 C21         5.6832    0.8020   -6.5312 C.3       1 <0>         0.1012
     22 C22        -3.2673    2.1480  -11.6303 C.3       1 <0>         0.1554
     23 C23        -4.1466    3.0941  -12.4556 C.3       1 <0>        -0.0356
     24 C24         1.4445    5.5921   -8.9731 C.3       1 <0>        -0.0795
     25 C25         1.6370    7.0835   -9.2718 C.3       1 <0>        -0.1203
     26 C26         2.1570    5.1335   -7.6933 C.3       1 <0>        -0.0920
     27 C27         0.9502    7.5360  -10.5601 C.3       1 <0>         0.1502
     28 C28         2.0196    3.6328   -7.4097 C.3       1 <0>         0.0224
     29 N1         -2.0587    2.0261   -9.5019 N.am      1 <0>        -0.3553
     30 N2         -2.1349    0.6298   -9.6602 N.3       1 <0>        -0.4320
     31 N3         -2.1572    1.6877  -12.4773 N.3       1 <0>        -0.9031
     32 N4          1.1922    8.9569  -10.7874 N.3       1 <0>        -0.9068
     33 N5          4.3754    1.4444   -6.4155 N.am      1 <0>        -0.5526
     34 N6          0.6426    3.2153   -7.3763 N.am      1 <0>        -0.5576
     35 O1         -2.5899    4.1027  -10.3594 O.2       1 <0>        -0.6710
     36 O2          2.3266    3.2509   -5.0269 O.2       1 <0>        -0.4901
     37 O3          5.0647    3.6847   -6.2675 O.2       1 <0>        -0.5902
     38 O4          0.3766    2.7593   -9.6452 O.2       1 <0>        -0.5833
     39 H1         -6.4098    0.5350  -16.5951 H         1 <0>         0.1320
     40 H2         -4.1972    1.6230  -16.8692 H         1 <0>         0.1324
     41 H3         -7.5763    0.6298  -14.4076 H         1 <0>         0.1328
     42 H4         -3.1501    2.8034  -14.9651 H         1 <0>         0.1324
     43 H5         -6.5379    1.8077  -12.4972 H         1 <0>         0.1434
     44 H6          8.4435   -1.9842   -6.1671 H         1 <0>         0.0405
     45 H7          6.8051   -2.2412   -5.5710 H         1 <0>         0.0421
     46 H8          7.9023   -0.5230   -4.2101 H         1 <0>         0.0362
     47 H9          8.3275    0.4091   -5.6437 H         1 <0>         0.0439
     48 H10         7.6221   -0.5997   -8.0178 H         1 <0>         0.0350
     49 H11         6.7703   -2.1422   -8.0198 H         1 <0>         0.0428
     50 H12         5.5110   -0.1235   -4.5770 H         1 <0>         0.0663
     51 H13         6.3634    1.4136   -4.5656 H         1 <0>         0.0466
     52 H14         5.2261   -0.2133   -8.3913 H         1 <0>         0.0493
     53 H15         4.8042   -1.1351   -6.9552 H         1 <0>         0.0520
     54 H16        -2.5475    1.1615   -6.8606 H         1 <0>         0.0915
     55 H17        -0.7842    1.0569   -6.6575 H         1 <0>         0.0601
     56 H18        -4.2204    0.2148  -11.9317 H         1 <0>         0.0688
     57 H19        -5.1178    1.2870  -10.8778 H         1 <0>         0.0630
     58 H20        -0.5477   -0.2605   -8.6286 H         1 <0>         0.0807
     59 H21        -2.1179   -0.8467   -8.0766 H         1 <0>         0.0380
     60 H22        -4.1468    0.5063   -9.0071 H         1 <0>         0.0484
     61 H23        -3.6100   -0.8367  -10.0142 H         1 <0>         0.0697
     62 H24        -2.0054    3.2790   -7.8063 H         1 <0>         0.0843
     63 H25         6.3372    1.5246   -7.0329 H         1 <0>         0.0831
     64 H26        -3.5359    3.9262  -12.8108 H         1 <0>         0.0704
     65 H27        -4.9137    3.5213  -11.8072 H         1 <0>         0.0718
     66 H28         0.3683    5.4079   -8.8774 H         1 <0>         0.0606
     67 H29         1.7918    5.0040   -9.8306 H         1 <0>         0.0458
     68 H30         1.2300    7.6523   -8.4256 H         1 <0>         0.0375
     69 H31         2.7093    7.3123   -9.3176 H         1 <0>         0.0392
     70 H32         1.7604    5.7005   -6.8419 H         1 <0>         0.0606
     71 H33         3.2243    5.3739   -7.7660 H         1 <0>         0.0579
     72 H34        -0.1287    7.3572  -10.4981 H         1 <0>         0.0571
     73 H35         1.3345    6.9786  -11.4193 H         1 <0>         0.0503
     74 H36         2.4714    3.0747   -8.2388 H         1 <0>         0.0993
     75 H37        -1.7180    0.8294  -12.2371 H         1 <0>         0.3700
     76 H38        -1.7642    2.3382  -13.1175 H         1 <0>         0.3660
     77 H39         0.7014    9.4044  -11.5317 H         1 <0>         0.3465
     78 H40         1.9755    9.3785  -10.3359 H         1 <0>         0.3446
     79 H41         3.5452    0.8594   -6.4225 H         1 <0>         0.3148
     80 H42         0.1596    3.2148   -6.4798 H         1 <0>         0.3220
@<TRIPOS>BOND
     1    1    2 ar
     2    1    3 ar
     3    2    4 ar
     4    3    5 ar
     5    4    6 ar
     6    5    6 ar
     7    6   23 1
     8    7   22 1
     9    7   29 am
    10    7   35 2
    11    8    9 1
    12    8   28 1
    13    8   36 2
    14    9   33 am
    15    9   37 2
    16   10   20 1
    17   10   34 am
    18   10   38 2
    19   11   12 1
    20   11   13 1
    21   12   14 1
    22   13   15 1
    23   14   21 1
    24   15   21 1
    25   16   18 1
    26   16   20 1
    27   17   19 1
    28   17   22 1
    29   18   30 1
    30   19   30 1
    31   20   29 1
    32   21   33 1
    33   22   23 1
    34   22   31 1
    35   24   25 1
    36   24   26 1
    37   25   27 1
    38   26   28 1
    39   27   32 1
    40   28   34 1
    41   29   30 1
    42    1   39 1
    43    2   40 1
    44    3   41 1
    45    4   42 1
    46    5   43 1
    47   11   44 1
    48   11   45 1
    49   12   46 1
    50   12   47 1
    51   13   48 1
    52   13   49 1
    53   14   50 1
    54   14   51 1
    55   15   52 1
    56   15   53 1
    57   16   54 1
    58   16   55 1
    59   17   56 1
    60   17   57 1
    61   18   58 1
    62   18   59 1
    63   19   60 1
    64   19   61 1
    65   20   62 1
    66   21   63 1
    67   23   64 1
    68   23   65 1
    69   24   66 1
    70   24   67 1
    71   25   68 1
    72   25   69 1
    73   26   70 1
    74   26   71 1
    75   27   72 1
    76   27   73 1
    77   28   74 1
    78   31   75 1
    79   31   76 1
    80   32   77 1
    81   32   78 1
    82   33   79 1
    83   34   80 1
@<TRIPOS>MOLECULE
1a46_ligand_187
   80    83     0     0     0
SMALL
USER_CHARGES

mmff94s_NoEstat = 84.78
@<TRIPOS>ATOM
      1 C1         11.0121    9.2104   -7.9325 C.ar      1 <0>        -0.1300
      2 C2         11.5385    8.8832   -6.6829 C.ar      1 <0>        -0.1323
      3 C3          9.6345    9.1559   -8.1449 C.ar      1 <0>        -0.1309
      4 C4         10.6874    8.5015   -5.6458 C.ar      1 <0>        -0.1275
      5 C5          8.7834    8.7742   -7.1078 C.ar      1 <0>        -0.1272
      6 C6          9.3154    8.4495   -5.8650 C.ar      1 <0>        -0.0843
      7 C7          7.2411    6.0968   -3.6024 C.2       1 <0>         0.6709
      8 C8          5.2358    2.3798    1.5634 C.2       1 <0>         0.4867
      9 C9          4.9672    2.8271    2.9706 C.2       1 <0>         0.5883
     10 C10         6.5256    3.6321   -1.6689 C.2       1 <0>         0.6572
     11 C11         3.0566    7.3368    3.6101 C.3       1 <0>        -0.0802
     12 C12         4.4991    6.8448    3.6944 C.3       1 <0>        -0.0765
     13 C13         2.0921    6.2130    3.2404 C.3       1 <0>        -0.0774
     14 C14         4.6316    5.6493    4.6388 C.3       1 <0>        -0.0953
     15 C15         2.2302    5.0192    4.1862 C.3       1 <0>        -0.0906
     16 C16         5.2113    3.0694   -3.7284 C.3       1 <0>        -0.0871
     17 C17         7.6012    6.0599   -6.1012 C.3       1 <0>        -0.0716
     18 C18         6.3446    2.7580   -4.7039 C.3       1 <0>         0.1333
     19 C19         6.8355    4.7264   -6.0536 C.3       1 <0>         0.1246
     20 C20         5.7868    4.1659   -2.8575 C.3       1 <0>         0.0606
     21 C21         3.6721    4.5042    4.2884 C.3       1 <0>         0.1012
     22 C22         8.1773    6.5224   -4.7422 C.3       1 <0>         0.1554
     23 C23         8.4000    8.0389   -4.7494 C.3       1 <0>        -0.0356
     24 C24         8.0800    4.9598    0.7851 C.3       1 <0>        -0.0795
     25 C25         8.7880    6.0338    1.6192 C.3       1 <0>        -0.1203
     26 C26         6.9719    4.2276    1.5544 C.3       1 <0>        -0.0920
     27 C27         9.9095    6.7454    0.8629 C.3       1 <0>         0.1502
     28 C28         6.2906    3.1130    0.7514 C.3       1 <0>         0.0224
     29 N1          6.7674    4.7991   -3.7183 N.am      1 <0>        -0.3553
     30 N2          7.1280    4.0001   -4.8193 N.3       1 <0>        -0.4320
     31 N3          9.4643    5.8648   -4.4722 N.3       1 <0>        -0.9031
     32 N4         10.5470    7.7366    1.7233 N.3       1 <0>        -0.9068
     33 N5          4.0751    3.8723    3.0302 N.am      1 <0>        -0.5526
     34 N6          5.7762    3.5917   -0.5046 N.am      1 <0>        -0.5576
     35 O1          6.9567    6.8465   -2.6685 O.2       1 <0>        -0.6710
     36 O2          4.5176    1.4899    1.1258 O.2       1 <0>        -0.4901
     37 O3          5.5575    2.2579    3.8741 O.2       1 <0>        -0.5902
     38 O4          7.6924    3.2783   -1.7917 O.2       1 <0>        -0.5833
     39 H1         11.6747    9.5075   -8.7400 H         1 <0>         0.1320
     40 H2         12.6111    8.9257   -6.5176 H         1 <0>         0.1324
     41 H3          9.2248    9.4105   -9.1180 H         1 <0>         0.1328
     42 H4         11.1066    8.2484   -4.6756 H         1 <0>         0.1324
     43 H5          7.7115    8.7346   -7.2826 H         1 <0>         0.1434
     44 H6          2.7622    7.7634    4.5770 H         1 <0>         0.0405
     45 H7          2.9843    8.1431    2.8715 H         1 <0>         0.0421
     46 H8          4.8498    6.5672    2.6931 H         1 <0>         0.0362
     47 H9          5.1451    7.6594    4.0414 H         1 <0>         0.0439
     48 H10         1.0626    6.5878    3.2707 H         1 <0>         0.0350
     49 H11         2.2823    5.8929    2.2088 H         1 <0>         0.0428
     50 H12         5.6681    5.2911    4.6230 H         1 <0>         0.0663
     51 H13         4.4267    5.9838    5.6638 H         1 <0>         0.0466
     52 H14         1.8872    5.3174    5.1851 H         1 <0>         0.0493
     53 H15         1.5655    4.2145    3.8493 H         1 <0>         0.0520
     54 H16         4.3507    3.4578   -4.2870 H         1 <0>         0.0915
     55 H17         4.8908    2.1856   -3.1683 H         1 <0>         0.0601
     56 H18         8.4120    5.9885   -6.8390 H         1 <0>         0.0688
     57 H19         6.9149    6.8257   -6.4876 H         1 <0>         0.0630
     58 H20         6.9926    1.9855   -4.2725 H         1 <0>         0.0807
     59 H21         5.9735    2.3729   -5.6602 H         1 <0>         0.0380
     60 H22         5.7592    4.9288   -6.1435 H         1 <0>         0.0484
     61 H23         7.1185    4.1245   -6.9255 H         1 <0>         0.0697
     62 H24         5.0406    4.8864   -2.5107 H         1 <0>         0.0843
     63 H25         3.7338    3.7211    5.0512 H         1 <0>         0.0831
     64 H26         8.8151    8.3408   -3.7861 H         1 <0>         0.0704
     65 H27         7.4343    8.5386   -4.8464 H         1 <0>         0.0718
     66 H28         7.6494    5.4516   -0.0948 H         1 <0>         0.0606
     67 H29         8.8216    4.2418    0.4157 H         1 <0>         0.0458
     68 H30         8.0356    6.7709    1.9287 H         1 <0>         0.0375
     69 H31         9.1825    5.5824    2.5383 H         1 <0>         0.0392
     70 H32         6.2171    4.9575    1.8728 H         1 <0>         0.0606
     71 H33         7.3929    3.7874    2.4660 H         1 <0>         0.0579
     72 H34         9.5108    7.2416   -0.0285 H         1 <0>         0.0571
     73 H35        10.6706    6.0303    0.5375 H         1 <0>         0.0503
     74 H36         7.0421    2.3587    0.4881 H         1 <0>         0.0993
     75 H37         9.5764    4.9261   -4.7778 H         1 <0>         0.3700
     76 H38        10.0811    6.3037   -3.8286 H         1 <0>         0.3660
     77 H39        11.2163    8.3531    1.3147 H         1 <0>         0.3465
     78 H40        10.4498    7.6340    2.7108 H         1 <0>         0.3446
     79 H41         3.6782    4.2214    2.1629 H         1 <0>         0.3148
     80 H42         4.8120    3.9176   -0.5391 H         1 <0>         0.3220
@<TRIPOS>BOND
     1    1    2 ar
     2    1    3 ar
     3    2    4 ar
     4    3    5 ar
     5    4    6 ar
     6    5    6 ar
     7    6   23 1
     8    7   22 1
     9    7   29 am
    10    7   35 2
    11    8    9 1
    12    8   28 1
    13    8   36 2
    14    9   33 am
    15    9   37 2
    16   10   20 1
    17   10   34 am
    18   10   38 2
    19   11   12 1
    20   11   13 1
    21   12   14 1
    22   13   15 1
    23   14   21 1
    24   15   21 1
    25   16   18 1
    26   16   20 1
    27   17   19 1
    28   17   22 1
    29   18   30 1
    30   19   30 1
    31   20   29 1
    32   21   33 1
    33   22   23 1
    34   22   31 1
    35   24   25 1
    36   24   26 1
    37   25   27 1
    38   26   28 1
    39   27   32 1
    40   28   34 1
    41   29   30 1
    42    1   39 1
    43    2   40 1
    44    3   41 1
    45    4   42 1
    46    5   43 1
    47   11   44 1
    48   11   45 1
    49   12   46 1
    50   12   47 1
    51   13   48 1
    52   13   49 1
    53   14   50 1
    54   14   51 1
    55   15   52 1
    56   15   53 1
    57   16   54 1
    58   16   55 1
    59   17   56 1
    60   17   57 1
    61   18   58 1
    62   18   59 1
    63   19   60 1
    64   19   61 1
    65   20   62 1
    66   21   63 1
    67   23   64 1
    68   23   65 1
    69   24   66 1
    70   24   67 1
    71   25   68 1
    72   25   69 1
    73   26   70 1
    74   26   71 1
    75   27   72 1
    76   27   73 1
    77   28   74 1
    78   31   75 1
    79   31   76 1
    80   32   77 1
    81   32   78 1
    82   33   79 1
    83   34   80 1
@<TRIPOS>MOLECULE
1a46_ligand_188
   80    83     0     0     0
SMALL
USER_CHARGES

mmff94s_NoEstat = 84.80
@<TRIPOS>ATOM
      1 C1          9.0003   12.0144   -5.4225 C.ar      1 <0>        -0.1300
      2 C2          9.4537   11.5665   -4.1818 C.ar      1 <0>        -0.1323
      3 C3          7.8120   11.5127   -5.9535 C.ar      1 <0>        -0.1309
      4 C4          8.7189   10.6167   -3.4722 C.ar      1 <0>        -0.1275
      5 C5          7.0772   10.5629   -5.2439 C.ar      1 <0>        -0.1272
      6 C6          7.5355   10.1211   -4.0078 C.ar      1 <0>        -0.0843
      7 C7          6.3757    6.6257   -2.8269 C.2       1 <0>         0.6709
      8 C8          5.2358    2.3798    1.5634 C.2       1 <0>         0.4867
      9 C9          3.8230    2.3549    1.0577 C.2       1 <0>         0.5883
     10 C10         6.5256    3.6321   -1.6689 C.2       1 <0>         0.6572
     11 C11         0.1943    2.5042    4.4055 C.3       1 <0>        -0.0802
     12 C12         0.8241    1.3237    3.6709 C.3       1 <0>        -0.0765
     13 C13         0.8490    3.8286    4.0220 C.3       1 <0>        -0.0774
     14 C14         0.8252    1.5389    2.1568 C.3       1 <0>        -0.0953
     15 C15         0.8496    4.0381    2.5071 C.3       1 <0>        -0.0906
     16 C16         5.8400    3.2307   -4.0468 C.3       1 <0>        -0.0871
     17 C17         7.0291    7.4385   -5.1265 C.3       1 <0>        -0.0716
     18 C18         7.1120    3.6562   -4.7776 C.3       1 <0>         0.1333
     19 C19         6.8955    5.9616   -5.5361 C.3       1 <0>         0.1246
     20 C20         5.7868    4.1659   -2.8575 C.3       1 <0>         0.0606
     21 C21         1.4786    2.8646    1.7442 C.3       1 <0>         0.1012
     22 C22         7.1815    7.6752   -3.6055 C.3       1 <0>         0.1554
     23 C23         6.7451    9.0995   -3.2444 C.3       1 <0>        -0.0356
     24 C24         8.0800    4.9598    0.7851 C.3       1 <0>        -0.0795
     25 C25         8.7880    6.0338    1.6192 C.3       1 <0>        -0.1203
     26 C26         6.9719    4.2276    1.5544 C.3       1 <0>        -0.0920
     27 C27         9.9095    6.7454    0.8629 C.3       1 <0>         0.1502
     28 C28         6.2906    3.1130    0.7514 C.3       1 <0>         0.0224
     29 N1          6.5101    5.3360   -3.3173 N.am      1 <0>        -0.3553
     30 N2          7.3084    5.0783   -4.4472 N.3       1 <0>        -0.4320
     31 N3          8.5804    7.4980   -3.1893 N.3       1 <0>        -0.9031
     32 N4         10.5470    7.7366    1.7233 N.3       1 <0>        -0.9068
     33 N5          2.9218    2.8162    1.9889 N.am      1 <0>        -0.5526
     34 N6          5.7762    3.5917   -0.5046 N.am      1 <0>        -0.5576
     35 O1          5.6876    6.9159   -1.8485 O.2       1 <0>        -0.6710
     36 O2          5.4669    1.7271    2.5732 O.2       1 <0>        -0.4901
     37 O3          3.6258    1.9273   -0.0679 O.2       1 <0>        -0.5902
     38 O4          7.6924    3.2783   -1.7917 O.2       1 <0>        -0.5833
     39 H1          9.5724   12.7539   -5.9752 H         1 <0>         0.1320
     40 H2         10.3789   11.9573   -3.7685 H         1 <0>         0.1324
     41 H3          7.4591   11.8615   -6.9197 H         1 <0>         0.1328
     42 H4          9.0800   10.2736   -2.5062 H         1 <0>         0.1324
     43 H5          6.1526   10.1776   -5.6655 H         1 <0>         0.1434
     44 H6         -0.8764    2.5478    4.1705 H         1 <0>         0.0405
     45 H7          0.2765    2.3517    5.4876 H         1 <0>         0.0421
     46 H8          1.8516    1.1783    4.0256 H         1 <0>         0.0362
     47 H9          0.2739    0.4065    3.9103 H         1 <0>         0.0439
     48 H10         0.3166    4.6552    4.5063 H         1 <0>         0.0350
     49 H11         1.8783    3.8505    4.3999 H         1 <0>         0.0428
     50 H12         1.3389    0.6988    1.6740 H         1 <0>         0.0663
     51 H13        -0.2116    1.5264    1.7970 H         1 <0>         0.0466
     52 H14        -0.1857    4.1693    2.1674 H         1 <0>         0.0493
     53 H15         1.3811    4.9684    2.2727 H         1 <0>         0.0520
     54 H16         4.9736    3.4114   -4.6951 H         1 <0>         0.0915
     55 H17         5.8531    2.1713   -3.7729 H         1 <0>         0.0601
     56 H18         7.8805    7.8879   -5.6555 H         1 <0>         0.0688
     57 H19         6.1391    7.9685   -5.4921 H         1 <0>         0.0630
     58 H20         7.9647    3.0932   -4.3794 H         1 <0>         0.0807
     59 H21         7.0607    3.4497   -5.8523 H         1 <0>         0.0380
     60 H22         5.8545    5.7643   -5.8276 H         1 <0>         0.0484
     61 H23         7.5124    5.7838   -6.4252 H         1 <0>         0.0697
     62 H24         4.7698    4.4250   -2.5496 H         1 <0>         0.0843
     63 H25         1.3617    3.0169    0.6661 H         1 <0>         0.0831
     64 H26         6.8700    9.2469   -2.1701 H         1 <0>         0.0704
     65 H27         5.6795    9.2080   -3.4549 H         1 <0>         0.0718
     66 H28         7.6494    5.4516   -0.0948 H         1 <0>         0.0606
     67 H29         8.8216    4.2418    0.4157 H         1 <0>         0.0458
     68 H30         8.0356    6.7709    1.9287 H         1 <0>         0.0375
     69 H31         9.1825    5.5824    2.5383 H         1 <0>         0.0392
     70 H32         6.2171    4.9575    1.8728 H         1 <0>         0.0606
     71 H33         7.3929    3.7874    2.4660 H         1 <0>         0.0579
     72 H34         9.5108    7.2416   -0.0285 H         1 <0>         0.0571
     73 H35        10.6706    6.0303    0.5375 H         1 <0>         0.0503
     74 H36         7.0421    2.3587    0.4881 H         1 <0>         0.0993
     75 H37         9.1142    6.7979   -3.6499 H         1 <0>         0.3700
     76 H38         8.8693    7.9327   -2.3437 H         1 <0>         0.3660
     77 H39        11.2163    8.3531    1.3147 H         1 <0>         0.3465
     78 H40        10.4498    7.6340    2.7108 H         1 <0>         0.3446
     79 H41         3.2728    3.1375    2.8861 H         1 <0>         0.3148
     80 H42         4.8120    3.9176   -0.5391 H         1 <0>         0.3220
@<TRIPOS>BOND
     1    1    2 ar
     2    1    3 ar
     3    2    4 ar
     4    3    5 ar
     5    4    6 ar
     6    5    6 ar
     7    6   23 1
     8    7   22 1
     9    7   29 am
    10    7   35 2
    11    8    9 1
    12    8   28 1
    13    8   36 2
    14    9   33 am
    15    9   37 2
    16   10   20 1
    17   10   34 am
    18   10   38 2
    19   11   12 1
    20   11   13 1
    21   12   14 1
    22   13   15 1
    23   14   21 1
    24   15   21 1
    25   16   18 1
    26   16   20 1
    27   17   19 1
    28   17   22 1
    29   18   30 1
    30   19   30 1
    31   20   29 1
    32   21   33 1
    33   22   23 1
    34   22   31 1
    35   24   25 1
    36   24   26 1
    37   25   27 1
    38   26   28 1
    39   27   32 1
    40   28   34 1
    41   29   30 1
    42    1   39 1
    43    2   40 1
    44    3   41 1
    45    4   42 1
    46    5   43 1
    47   11   44 1
    48   11   45 1
    49   12   46 1
    50   12   47 1
    51   13   48 1
    52   13   49 1
    53   14   50 1
    54   14   51 1
    55   15   52 1
    56   15   53 1
    57   16   54 1
    58   16   55 1
    59   17   56 1
    60   17   57 1
    61   18   58 1
    62   18   59 1
    63   19   60 1
    64   19   61 1
    65   20   62 1
    66   21   63 1
    67   23   64 1
    68   23   65 1
    69   24   66 1
    70   24   67 1
    71   25   68 1
    72   25   69 1
    73   26   70 1
    74   26   71 1
    75   27   72 1
    76   27   73 1
    77   28   74 1
    78   31   75 1
    79   31   76 1
    80   32   77 1
    81   32   78 1
    82   33   79 1
    83   34   80 1
@<TRIPOS>MOLECULE
1a46_ligand_189
   80    83     0     0     0
SMALL
USER_CHARGES

mmff94s_NoEstat = 84.80
@<TRIPOS>ATOM
      1 C1         -7.1732    5.1663  -14.6915 C.ar      1 <0>        -0.1300
      2 C2         -5.9354    5.8086  -14.7170 C.ar      1 <0>        -0.1323
      3 C3         -7.6444    4.6069  -13.5037 C.ar      1 <0>        -0.1309
      4 C4         -5.1685    5.8915  -13.5548 C.ar      1 <0>        -0.1275
      5 C5         -6.8775    4.6898  -12.3415 C.ar      1 <0>        -0.1272
      6 C6         -5.6446    5.3316  -12.3746 C.ar      1 <0>        -0.0843
      7 C7         -3.0329    4.3040   -9.7137 C.2       1 <0>         0.6709
      8 C8          2.7796    3.2097   -6.1637 C.2       1 <0>         0.4867
      9 C9          4.2189    2.8058   -6.2975 C.2       1 <0>         0.5883
     10 C10        -0.2306    3.3845   -8.4382 C.2       1 <0>         0.6572
     11 C11         7.4896   -0.5422   -9.0010 C.3       1 <0>        -0.0802
     12 C12         6.8621   -1.1411   -7.7455 C.3       1 <0>        -0.0765
     13 C13         7.6337    0.9731   -8.8907 C.3       1 <0>        -0.0774
     14 C14         5.5298   -0.4740   -7.4080 C.3       1 <0>        -0.0953
     15 C15         6.3021    1.6426   -8.5552 C.3       1 <0>        -0.0906
     16 C16        -1.6648    1.3674   -8.0386 C.3       1 <0>        -0.0871
     17 C17        -4.6909    2.9009  -11.0011 C.3       1 <0>        -0.0716
     18 C18        -1.8612    0.8785   -9.4723 C.3       1 <0>         0.1333
     19 C19        -3.9819    1.7050  -10.3424 C.3       1 <0>         0.1246
     20 C20        -1.6152    2.8736   -8.1831 C.3       1 <0>         0.0606
     21 C21         5.6814    1.0464   -7.2871 C.3       1 <0>         0.1012
     22 C22        -3.8794    4.2177  -10.9915 C.3       1 <0>         0.1554
     23 C23        -4.8198    5.4208  -11.1245 C.3       1 <0>        -0.0356
     24 C24         1.5857    6.0302   -6.5865 C.3       1 <0>        -0.0795
     25 C25         1.6811    7.5259   -6.9095 C.3       1 <0>        -0.1203
     26 C26         2.1570    5.1335   -7.6933 C.3       1 <0>        -0.0920
     27 C27         1.0885    8.4192   -5.8200 C.3       1 <0>         0.1502
     28 C28         2.0196    3.6328   -7.4097 C.3       1 <0>         0.0224
     29 N1         -2.3880    3.1216   -9.3852 N.am      1 <0>        -0.3553
     30 N2         -2.5540    1.9705  -10.1777 N.3       1 <0>        -0.4320
     31 N3         -2.9247    4.2482  -12.1092 N.3       1 <0>        -0.9031
     32 N4          1.8018    8.2205   -4.5627 N.3       1 <0>        -0.9068
     33 N5          4.3773    1.6573   -7.0377 N.am      1 <0>        -0.5526
     34 N6          0.6426    3.2153   -7.3763 N.am      1 <0>        -0.5576
     35 O1         -2.9337    5.3408   -9.0578 O.2       1 <0>        -0.6710
     36 O2          2.3266    3.2509   -5.0269 O.2       1 <0>        -0.4901
     37 O3          5.0600    3.4942   -5.7431 O.2       1 <0>        -0.5902
     38 O4          0.0350    3.8958   -9.5198 O.2       1 <0>        -0.5833
     39 H1         -7.7703    5.1016  -15.5965 H         1 <0>         0.1320
     40 H2         -5.5686    6.2441  -15.6419 H         1 <0>         0.1324
     41 H3         -8.6082    4.1066  -13.4840 H         1 <0>         0.1328
     42 H4         -4.2053    6.3939  -13.5842 H         1 <0>         0.1324
     43 H5         -7.2527    4.2510  -11.4207 H         1 <0>         0.1434
     44 H6          8.4726   -0.9944   -9.1737 H         1 <0>         0.0405
     45 H7          6.8675   -0.7864   -9.8709 H         1 <0>         0.0421
     46 H8          6.7099   -2.2171   -7.8869 H         1 <0>         0.0362
     47 H9          7.5519   -1.0240   -6.9007 H         1 <0>         0.0439
     48 H10         8.3690    1.2150   -8.1134 H         1 <0>         0.0350
     49 H11         8.0212    1.3758   -9.8333 H         1 <0>         0.0428
     50 H12         4.7934   -0.7169   -8.1855 H         1 <0>         0.0663
     51 H13         5.1384   -0.8871   -6.4704 H         1 <0>         0.0466
     52 H14         6.4549    2.7210   -8.4260 H         1 <0>         0.0493
     53 H15         5.6120    1.5259   -9.4013 H         1 <0>         0.0520
     54 H16        -2.5383    1.0847   -7.4380 H         1 <0>         0.0915
     55 H17        -0.7712    0.9407   -7.5731 H         1 <0>         0.0601
     56 H18        -4.9589    2.6417  -12.0345 H         1 <0>         0.0688
     57 H19        -5.6440    3.0543  -10.4769 H         1 <0>         0.0630
     58 H20        -0.8817    0.7357   -9.9443 H         1 <0>         0.0807
     59 H21        -2.3843   -0.0833   -9.5137 H         1 <0>         0.0380
     60 H22        -4.4563    1.4977   -9.3732 H         1 <0>         0.0484
     61 H23        -4.1342    0.8159  -10.9661 H         1 <0>         0.0697
     62 H24        -2.0334    3.4095   -7.3263 H         1 <0>         0.0843
     63 H25         6.3055    1.2890   -6.4192 H         1 <0>         0.0831
     64 H26        -4.2259    6.3366  -11.1252 H         1 <0>         0.0704
     65 H27        -5.4653    5.4651  -10.2453 H         1 <0>         0.0718
     66 H28         2.1358    5.8550   -5.6547 H         1 <0>         0.0606
     67 H29         0.5392    5.7688   -6.3906 H         1 <0>         0.0458
     68 H30         2.7419    7.7748   -7.0444 H         1 <0>         0.0375
     69 H31         1.1870    7.7255   -7.8687 H         1 <0>         0.0392
     70 H32         3.2164    5.3787   -7.8393 H         1 <0>         0.0606
     71 H33         1.6466    5.3535   -8.6384 H         1 <0>         0.0579
     72 H34         0.0275    8.1885   -5.6755 H         1 <0>         0.0571
     73 H35         1.1682    9.4739   -6.0992 H         1 <0>         0.0503
     74 H36         2.4714    3.0747   -8.2388 H         1 <0>         0.0993
     75 H37        -2.4982    3.3913  -12.3759 H         1 <0>         0.3700
     76 H38        -2.5954    5.1358  -12.4112 H         1 <0>         0.3660
     77 H39         1.4387    8.6562   -3.7421 H         1 <0>         0.3465
     78 H40         2.7216    7.8360   -4.5996 H         1 <0>         0.3446
     79 H41         3.5512    1.2141   -7.4284 H         1 <0>         0.3148
     80 H42         0.2924    2.7728   -6.5286 H         1 <0>         0.3220
@<TRIPOS>BOND
     1    1    2 ar
     2    1    3 ar
     3    2    4 ar
     4    3    5 ar
     5    4    6 ar
     6    5    6 ar
     7    6   23 1
     8    7   22 1
     9    7   29 am
    10    7   35 2
    11    8    9 1
    12    8   28 1
    13    8   36 2
    14    9   33 am
    15    9   37 2
    16   10   20 1
    17   10   34 am
    18   10   38 2
    19   11   12 1
    20   11   13 1
    21   12   14 1
    22   13   15 1
    23   14   21 1
    24   15   21 1
    25   16   18 1
    26   16   20 1
    27   17   19 1
    28   17   22 1
    29   18   30 1
    30   19   30 1
    31   20   29 1
    32   21   33 1
    33   22   23 1
    34   22   31 1
    35   24   25 1
    36   24   26 1
    37   25   27 1
    38   26   28 1
    39   27   32 1
    40   28   34 1
    41   29   30 1
    42    1   39 1
    43    2   40 1
    44    3   41 1
    45    4   42 1
    46    5   43 1
    47   11   44 1
    48   11   45 1
    49   12   46 1
    50   12   47 1
    51   13   48 1
    52   13   49 1
    53   14   50 1
    54   14   51 1
    55   15   52 1
    56   15   53 1
    57   16   54 1
    58   16   55 1
    59   17   56 1
    60   17   57 1
    61   18   58 1
    62   18   59 1
    63   19   60 1
    64   19   61 1
    65   20   62 1
    66   21   63 1
    67   23   64 1
    68   23   65 1
    69   24   66 1
    70   24   67 1
    71   25   68 1
    72   25   69 1
    73   26   70 1
    74   26   71 1
    75   27   72 1
    76   27   73 1
    77   28   74 1
    78   31   75 1
    79   31   76 1
    80   32   77 1
    81   32   78 1
    82   33   79 1
    83   34   80 1
@<TRIPOS>MOLECULE
1a46_ligand_190
   80    83     0     0     0
SMALL
USER_CHARGES

mmff94s_NoEstat = 84.84
@<TRIPOS>ATOM
      1 C1         -6.8775    5.0901  -14.7309 C.ar      1 <0>        -0.1300
      2 C2         -5.5917    5.6294  -14.7709 C.ar      1 <0>        -0.1323
      3 C3         -7.3842    4.5832  -13.5342 C.ar      1 <0>        -0.1309
      4 C4         -4.8126    5.6616  -13.6144 C.ar      1 <0>        -0.1275
      5 C5         -6.6051    4.6154  -12.3777 C.ar      1 <0>        -0.1272
      6 C6         -5.3244    5.1544  -12.4253 C.ar      1 <0>        -0.0843
      7 C7         -2.7863    3.9453   -9.7694 C.2       1 <0>         0.6709
      8 C8          2.7796    3.2097   -6.1637 C.2       1 <0>         0.4867
      9 C9          4.2189    2.8058   -6.2975 C.2       1 <0>         0.5883
     10 C10        -0.0591    2.8141   -8.5012 C.2       1 <0>         0.6572
     11 C11         8.3666    0.7600   -3.5001 C.3       1 <0>        -0.0802
     12 C12         8.2245    2.2767   -3.4103 C.3       1 <0>        -0.0765
     13 C13         7.8013    0.2179   -4.8099 C.3       1 <0>        -0.0774
     14 C14         6.7784    2.7209   -3.6235 C.3       1 <0>        -0.0953
     15 C15         6.3545    0.6592   -5.0243 C.3       1 <0>        -0.0906
     16 C16        -1.6498    0.9246   -8.0710 C.3       1 <0>        -0.0871
     17 C17        -4.5618    2.6685  -11.0314 C.3       1 <0>        -0.0716
     18 C18        -1.8952    0.4385   -9.4981 C.3       1 <0>         0.1333
     19 C19        -3.9477    1.4257  -10.3641 C.3       1 <0>         0.1246
     20 C20        -1.4789    2.4202   -8.2321 C.3       1 <0>         0.0606
     21 C21         6.2184    2.1837   -4.9453 C.3       1 <0>         0.1012
     22 C22        -3.6459    3.9150  -11.0410 C.3       1 <0>         0.1554
     23 C23        -4.4863    5.1891  -11.1812 C.3       1 <0>        -0.0356
     24 C24         1.5857    6.0302   -6.5865 C.3       1 <0>        -0.0795
     25 C25         1.6811    7.5259   -6.9095 C.3       1 <0>        -0.1203
     26 C26         2.1570    5.1335   -7.6933 C.3       1 <0>        -0.0920
     27 C27         1.0885    8.4192   -5.8200 C.3       1 <0>         0.1502
     28 C28         2.0196    3.6328   -7.4097 C.3       1 <0>         0.0224
     29 N1         -2.2374    2.7178   -9.4321 N.am      1 <0>        -0.3553
     30 N2         -2.5018    1.5760  -10.2111 N.3       1 <0>        -0.4320
     31 N3         -2.6997    3.8562  -12.1647 N.3       1 <0>        -0.9031
     32 N4          1.8018    8.2205   -4.5627 N.3       1 <0>        -0.9068
     33 N5          4.8139    2.5648   -5.0811 N.am      1 <0>        -0.5526
     34 N6          0.6426    3.2153   -7.3763 N.am      1 <0>        -0.5576
     35 O1         -2.5986    4.9773   -9.1254 O.2       1 <0>        -0.6710
     36 O2          2.3266    3.2509   -5.0269 O.2       1 <0>        -0.4901
     37 O3          4.6970    2.7561   -7.4190 O.2       1 <0>        -0.5902
     38 O4          0.3766    2.7593   -9.6452 O.2       1 <0>        -0.5833
     39 H1         -7.4841    5.0650  -15.6314 H         1 <0>         0.1320
     40 H2         -5.1973    6.0241  -15.7027 H         1 <0>         0.1324
     41 H3         -8.3853    4.1632  -13.5032 H         1 <0>         0.1328
     42 H4         -3.8120    6.0837  -13.6551 H         1 <0>         0.1324
     43 H5         -7.0082    4.2181  -11.4499 H         1 <0>         0.1434
     44 H6          9.4231    0.4827   -3.4118 H         1 <0>         0.0405
     45 H7          7.8419    0.2946   -2.6567 H         1 <0>         0.0421
     46 H8          8.5755    2.6224   -2.4314 H         1 <0>         0.0362
     47 H9          8.8653    2.7491   -4.1649 H         1 <0>         0.0439
     48 H10         8.4171    0.5688   -5.6472 H         1 <0>         0.0350
     49 H11         7.8564   -0.8766   -4.8098 H         1 <0>         0.0428
     50 H12         6.1622    2.3705   -2.7850 H         1 <0>         0.0663
     51 H13         6.7243    3.8163   -3.6115 H         1 <0>         0.0466
     52 H14         6.0017    0.3018   -5.9994 H         1 <0>         0.0493
     53 H15         5.7132    0.1855   -4.2693 H         1 <0>         0.0520
     54 H16        -2.5391    0.7200   -7.4620 H         1 <0>         0.0915
     55 H17        -0.7905    0.4314   -7.6064 H         1 <0>         0.0601
     56 H18        -4.8571    2.4214  -12.0603 H         1 <0>         0.0688
     57 H19        -5.4956    2.9043  -10.5031 H         1 <0>         0.0630
     58 H20        -0.9338    0.2117   -9.9745 H         1 <0>         0.0807
     59 H21        -2.4949   -0.4779   -9.5259 H         1 <0>         0.0380
     60 H22        -4.4307    1.2677   -9.3899 H         1 <0>         0.0484
     61 H23        -4.1761    0.5456  -10.9773 H         1 <0>         0.0697
     62 H24        -1.8462    2.9971   -7.3786 H         1 <0>         0.0843
     63 H25         6.7455    2.6473   -5.7872 H         1 <0>         0.0831
     64 H26        -3.8200    6.0535  -11.1955 H         1 <0>         0.0704
     65 H27        -5.1199    5.2949  -10.2986 H         1 <0>         0.0718
     66 H28         2.1358    5.8550   -5.6547 H         1 <0>         0.0606
     67 H29         0.5392    5.7688   -6.3906 H         1 <0>         0.0458
     68 H30         2.7419    7.7748   -7.0444 H         1 <0>         0.0375
     69 H31         1.1870    7.7255   -7.8687 H         1 <0>         0.0392
     70 H32         3.2164    5.3787   -7.8393 H         1 <0>         0.0606
     71 H33         1.6466    5.3535   -8.6384 H         1 <0>         0.0579
     72 H34         0.0275    8.1885   -5.6755 H         1 <0>         0.0571
     73 H35         1.1682    9.4739   -6.0992 H         1 <0>         0.0503
     74 H36         2.4714    3.0747   -8.2388 H         1 <0>         0.0993
     75 H37        -2.3461    2.9648  -12.4248 H         1 <0>         0.3700
     76 H38        -2.3015    4.7109  -12.4784 H         1 <0>         0.3660
     77 H39         1.4387    8.6562   -3.7421 H         1 <0>         0.3465
     78 H40         2.7216    7.8360   -4.5996 H         1 <0>         0.3446
     79 H41         4.2523    2.6558   -4.2398 H         1 <0>         0.3148
     80 H42         0.1596    3.2148   -6.4798 H         1 <0>         0.3220
@<TRIPOS>BOND
     1    1    2 ar
     2    1    3 ar
     3    2    4 ar
     4    3    5 ar
     5    4    6 ar
     6    5    6 ar
     7    6   23 1
     8    7   22 1
     9    7   29 am
    10    7   35 2
    11    8    9 1
    12    8   28 1
    13    8   36 2
    14    9   33 am
    15    9   37 2
    16   10   20 1
    17   10   34 am
    18   10   38 2
    19   11   12 1
    20   11   13 1
    21   12   14 1
    22   13   15 1
    23   14   21 1
    24   15   21 1
    25   16   18 1
    26   16   20 1
    27   17   19 1
    28   17   22 1
    29   18   30 1
    30   19   30 1
    31   20   29 1
    32   21   33 1
    33   22   23 1
    34   22   31 1
    35   24   25 1
    36   24   26 1
    37   25   27 1
    38   26   28 1
    39   27   32 1
    40   28   34 1
    41   29   30 1
    42    1   39 1
    43    2   40 1
    44    3   41 1
    45    4   42 1
    46    5   43 1
    47   11   44 1
    48   11   45 1
    49   12   46 1
    50   12   47 1
    51   13   48 1
    52   13   49 1
    53   14   50 1
    54   14   51 1
    55   15   52 1
    56   15   53 1
    57   16   54 1
    58   16   55 1
    59   17   56 1
    60   17   57 1
    61   18   58 1
    62   18   59 1
    63   19   60 1
    64   19   61 1
    65   20   62 1
    66   21   63 1
    67   23   64 1
    68   23   65 1
    69   24   66 1
    70   24   67 1
    71   25   68 1
    72   25   69 1
    73   26   70 1
    74   26   71 1
    75   27   72 1
    76   27   73 1
    77   28   74 1
    78   31   75 1
    79   31   76 1
    80   32   77 1
    81   32   78 1
    82   33   79 1
    83   34   80 1
@<TRIPOS>MOLECULE
1a46_ligand_191
   80    83     0     0     0
SMALL
USER_CHARGES

mmff94s_NoEstat = 84.86
@<TRIPOS>ATOM
      1 C1         -6.8775    5.0901  -14.7309 C.ar      1 <0>        -0.1300
      2 C2         -5.5917    5.6294  -14.7709 C.ar      1 <0>        -0.1323
      3 C3         -7.3842    4.5832  -13.5342 C.ar      1 <0>        -0.1309
      4 C4         -4.8126    5.6616  -13.6144 C.ar      1 <0>        -0.1275
      5 C5         -6.6051    4.6154  -12.3777 C.ar      1 <0>        -0.1272
      6 C6         -5.3244    5.1544  -12.4253 C.ar      1 <0>        -0.0843
      7 C7         -2.7863    3.9453   -9.7694 C.2       1 <0>         0.6709
      8 C8          2.7796    3.2097   -6.1637 C.2       1 <0>         0.4867
      9 C9          4.2189    2.8058   -6.2975 C.2       1 <0>         0.5883
     10 C10        -0.0591    2.8141   -8.5012 C.2       1 <0>         0.6572
     11 C11         7.7922   -0.8381   -4.5174 C.3       1 <0>        -0.0802
     12 C12         7.9054    0.6786   -4.3922 C.3       1 <0>        -0.0765
     13 C13         7.0460   -1.2444   -5.7851 C.3       1 <0>        -0.0774
     14 C14         6.5383    1.3550   -4.4797 C.3       1 <0>        -0.0953
     15 C15         5.6777   -0.5708   -5.8736 C.3       1 <0>        -0.0906
     16 C16        -1.6498    0.9246   -8.0710 C.3       1 <0>        -0.0871
     17 C17        -4.5618    2.6685  -11.0314 C.3       1 <0>        -0.0716
     18 C18        -1.8952    0.4385   -9.4981 C.3       1 <0>         0.1333
     19 C19        -3.9477    1.4257  -10.3641 C.3       1 <0>         0.1246
     20 C20        -1.4789    2.4202   -8.2321 C.3       1 <0>         0.0606
     21 C21         5.7973    0.9529   -5.7596 C.3       1 <0>         0.1012
     22 C22        -3.6459    3.9150  -11.0410 C.3       1 <0>         0.1554
     23 C23        -4.4863    5.1891  -11.1812 C.3       1 <0>        -0.0356
     24 C24         1.4445    5.5921   -8.9731 C.3       1 <0>        -0.0795
     25 C25         1.6370    7.0835   -9.2718 C.3       1 <0>        -0.1203
     26 C26         2.1570    5.1335   -7.6933 C.3       1 <0>        -0.0920
     27 C27         0.9502    7.5360  -10.5601 C.3       1 <0>         0.1502
     28 C28         2.0196    3.6328   -7.4097 C.3       1 <0>         0.0224
     29 N1         -2.2374    2.7178   -9.4321 N.am      1 <0>        -0.3553
     30 N2         -2.5018    1.5760  -10.2111 N.3       1 <0>        -0.4320
     31 N3         -2.6997    3.8562  -12.1647 N.3       1 <0>        -0.9031
     32 N4          1.1922    8.9569  -10.7874 N.3       1 <0>        -0.9068
     33 N5          4.4669    1.5582   -5.7743 N.am      1 <0>        -0.5526
     34 N6          0.6426    3.2153   -7.3763 N.am      1 <0>        -0.5576
     35 O1         -2.5986    4.9773   -9.1254 O.2       1 <0>        -0.6710
     36 O2          2.3266    3.2509   -5.0269 O.2       1 <0>        -0.4901
     37 O3          4.9897    3.5984   -6.8135 O.2       1 <0>        -0.5902
     38 O4          0.3766    2.7593   -9.6452 O.2       1 <0>        -0.5833
     39 H1         -7.4841    5.0650  -15.6314 H         1 <0>         0.1320
     40 H2         -5.1973    6.0241  -15.7027 H         1 <0>         0.1324
     41 H3         -8.3853    4.1632  -13.5032 H         1 <0>         0.1328
     42 H4         -3.8120    6.0837  -13.6551 H         1 <0>         0.1324
     43 H5         -7.0082    4.2181  -11.4499 H         1 <0>         0.1434
     44 H6          8.7933   -1.2837   -4.5200 H         1 <0>         0.0405
     45 H7          7.2663   -1.2374   -3.6415 H         1 <0>         0.0421
     46 H8          8.3832    0.9352   -3.4400 H         1 <0>         0.0362
     47 H9          8.5535    1.0637   -5.1891 H         1 <0>         0.0439
     48 H10         7.6433   -0.9728   -6.6642 H         1 <0>         0.0350
     49 H11         6.9226   -2.3331   -5.8069 H         1 <0>         0.0428
     50 H12         5.9408    1.0840   -3.5992 H         1 <0>         0.0663
     51 H13         6.6638    2.4441   -4.4459 H         1 <0>         0.0466
     52 H14         5.1966   -0.8386   -6.8222 H         1 <0>         0.0493
     53 H15         5.0289   -0.9570   -5.0764 H         1 <0>         0.0520
     54 H16        -2.5391    0.7200   -7.4620 H         1 <0>         0.0915
     55 H17        -0.7905    0.4314   -7.6064 H         1 <0>         0.0601
     56 H18        -4.8571    2.4214  -12.0603 H         1 <0>         0.0688
     57 H19        -5.4956    2.9043  -10.5031 H         1 <0>         0.0630
     58 H20        -0.9338    0.2117   -9.9745 H         1 <0>         0.0807
     59 H21        -2.4949   -0.4779   -9.5259 H         1 <0>         0.0380
     60 H22        -4.4307    1.2677   -9.3899 H         1 <0>         0.0484
     61 H23        -4.1761    0.5456  -10.9773 H         1 <0>         0.0697
     62 H24        -1.8462    2.9971   -7.3786 H         1 <0>         0.0843
     63 H25         6.3253    1.3501   -6.6343 H         1 <0>         0.0831
     64 H26        -3.8200    6.0535  -11.1955 H         1 <0>         0.0704
     65 H27        -5.1199    5.2949  -10.2986 H         1 <0>         0.0718
     66 H28         0.3683    5.4079   -8.8774 H         1 <0>         0.0606
     67 H29         1.7918    5.0040   -9.8306 H         1 <0>         0.0458
     68 H30         1.2300    7.6523   -8.4256 H         1 <0>         0.0375
     69 H31         2.7093    7.3123   -9.3176 H         1 <0>         0.0392
     70 H32         1.7604    5.7005   -6.8419 H         1 <0>         0.0606
     71 H33         3.2243    5.3739   -7.7660 H         1 <0>         0.0579
     72 H34        -0.1287    7.3572  -10.4981 H         1 <0>         0.0571
     73 H35         1.3345    6.9786  -11.4193 H         1 <0>         0.0503
     74 H36         2.4714    3.0747   -8.2388 H         1 <0>         0.0993
     75 H37        -2.3461    2.9648  -12.4248 H         1 <0>         0.3700
     76 H38        -2.3015    4.7109  -12.4784 H         1 <0>         0.3660
     77 H39         0.7014    9.4044  -11.5317 H         1 <0>         0.3465
     78 H40         1.9755    9.3785  -10.3359 H         1 <0>         0.3446
     79 H41         3.6911    1.0342   -5.3805 H         1 <0>         0.3148
     80 H42         0.1596    3.2148   -6.4798 H         1 <0>         0.3220
@<TRIPOS>BOND
     1    1    2 ar
     2    1    3 ar
     3    2    4 ar
     4    3    5 ar
     5    4    6 ar
     6    5    6 ar
     7    6   23 1
     8    7   22 1
     9    7   29 am
    10    7   35 2
    11    8    9 1
    12    8   28 1
    13    8   36 2
    14    9   33 am
    15    9   37 2
    16   10   20 1
    17   10   34 am
    18   10   38 2
    19   11   12 1
    20   11   13 1
    21   12   14 1
    22   13   15 1
    23   14   21 1
    24   15   21 1
    25   16   18 1
    26   16   20 1
    27   17   19 1
    28   17   22 1
    29   18   30 1
    30   19   30 1
    31   20   29 1
    32   21   33 1
    33   22   23 1
    34   22   31 1
    35   24   25 1
    36   24   26 1
    37   25   27 1
    38   26   28 1
    39   27   32 1
    40   28   34 1
    41   29   30 1
    42    1   39 1
    43    2   40 1
    44    3   41 1
    45    4   42 1
    46    5   43 1
    47   11   44 1
    48   11   45 1
    49   12   46 1
    50   12   47 1
    51   13   48 1
    52   13   49 1
    53   14   50 1
    54   14   51 1
    55   15   52 1
    56   15   53 1
    57   16   54 1
    58   16   55 1
    59   17   56 1
    60   17   57 1
    61   18   58 1
    62   18   59 1
    63   19   60 1
    64   19   61 1
    65   20   62 1
    66   21   63 1
    67   23   64 1
    68   23   65 1
    69   24   66 1
    70   24   67 1
    71   25   68 1
    72   25   69 1
    73   26   70 1
    74   26   71 1
    75   27   72 1
    76   27   73 1
    77   28   74 1
    78   31   75 1
    79   31   76 1
    80   32   77 1
    81   32   78 1
    82   33   79 1
    83   34   80 1
@<TRIPOS>MOLECULE
1a46_ligand_192
   80    83     0     0     0
SMALL
USER_CHARGES

mmff94s_NoEstat = 84.87
@<TRIPOS>ATOM
      1 C1         -3.7305   -5.9204  -11.3537 C.ar      1 <0>        -0.1300
      2 C2         -2.4262   -5.5183  -11.6410 C.ar      1 <0>        -0.1323
      3 C3         -4.6750   -4.9808  -10.9404 C.ar      1 <0>        -0.1309
      4 C4         -2.0662   -4.1766  -11.5149 C.ar      1 <0>        -0.1275
      5 C5         -4.3150   -3.6391  -10.8142 C.ar      1 <0>        -0.1272
      6 C6         -3.0129   -3.2458  -11.1023 C.ar      1 <0>        -0.0843
      7 C7         -1.7147   -0.0189   -9.4111 C.2       1 <0>         0.6709
      8 C8          2.7796    3.2097   -6.1637 C.2       1 <0>         0.4867
      9 C9          3.9990    3.9872   -5.7623 C.2       1 <0>         0.5883
     10 C10         0.2181    1.9581   -7.7739 C.2       1 <0>         0.6572
     11 C11         9.3850    3.6101   -5.5083 C.3       1 <0>        -0.0802
     12 C12         8.4401    3.8908   -4.3433 C.3       1 <0>        -0.0765
     13 C13         8.8474    4.1778   -6.8189 C.3       1 <0>        -0.0774
     14 C14         7.0253    3.3919   -4.6323 C.3       1 <0>        -0.0953
     15 C15         7.4334    3.6786   -7.1110 C.3       1 <0>        -0.0906
     16 C16        -1.7326    1.7367   -6.2145 C.3       1 <0>        -0.0871
     17 C17        -3.1871   -1.8587   -8.5042 C.3       1 <0>        -0.0716
     18 C18        -1.5889    0.2745   -5.7969 C.3       1 <0>         0.1333
     19 C19        -3.0480   -1.1203   -7.1617 C.3       1 <0>         0.1246
     20 C20        -1.2590    1.7411   -7.6524 C.3       1 <0>         0.0606
     21 C21         6.4852    3.9734   -5.9435 C.3       1 <0>         0.1012
     22 C22        -2.1125   -1.4947   -9.5555 C.3       1 <0>         0.1554
     23 C23        -2.6257   -1.8026  -10.9666 C.3       1 <0>        -0.0356
     24 C24         1.4445    5.5921   -8.9731 C.3       1 <0>        -0.0795
     25 C25         1.6370    7.0835   -9.2718 C.3       1 <0>        -0.1203
     26 C26         2.1570    5.1335   -7.6933 C.3       1 <0>        -0.0920
     27 C27         0.9502    7.5360  -10.5601 C.3       1 <0>         0.1502
     28 C28         2.0196    3.6328   -7.4097 C.3       1 <0>         0.0224
     29 N1         -1.5278    0.3875   -8.0990 N.am      1 <0>        -0.3553
     30 N2         -1.7250   -0.5121   -7.0349 N.3       1 <0>        -0.4320
     31 N3         -0.8818   -2.2667   -9.3297 N.3       1 <0>        -0.9031
     32 N4          1.1922    8.9569  -10.7874 N.3       1 <0>        -0.9068
     33 N5          5.1626    3.4185   -6.2254 N.am      1 <0>        -0.5526
     34 N6          0.6426    3.2153   -7.3763 N.am      1 <0>        -0.5576
     35 O1         -1.5651    0.7213  -10.3831 O.2       1 <0>        -0.6710
     36 O2          2.4233    2.3196   -5.4021 O.2       1 <0>        -0.4901
     37 O3          3.8414    4.9860   -5.0794 O.2       1 <0>        -0.5902
     38 O4          0.9290    1.0536   -8.1959 O.2       1 <0>        -0.5833
     39 H1         -4.0108   -6.9651  -11.4519 H         1 <0>         0.1320
     40 H2         -1.6909   -6.2500  -11.9629 H         1 <0>         0.1324
     41 H3         -5.6906   -5.2940  -10.7166 H         1 <0>         0.1328
     42 H4         -1.0476   -3.8726  -11.7408 H         1 <0>         0.1324
     43 H5         -5.0575   -2.9141  -10.4915 H         1 <0>         0.1434
     44 H6         10.3699    4.0410   -5.2964 H         1 <0>         0.0405
     45 H7          9.5247    2.5269   -5.6109 H         1 <0>         0.0421
     46 H8          8.8217    3.4105   -3.4353 H         1 <0>         0.0362
     47 H9          8.4124    4.9697   -4.1470 H         1 <0>         0.0439
     48 H10         8.8437    5.2736   -6.7687 H         1 <0>         0.0350
     49 H11         9.5141    3.8981   -7.6424 H         1 <0>         0.0428
     50 H12         7.0287    2.2950   -4.6816 H         1 <0>         0.0663
     51 H13         6.3626    3.6628   -3.8014 H         1 <0>         0.0466
     52 H14         7.0582    4.1516   -8.0267 H         1 <0>         0.0493
     53 H15         7.4614    2.5988   -7.3082 H         1 <0>         0.0520
     54 H16        -2.7915    2.0208   -6.1758 H         1 <0>         0.0915
     55 H17        -1.1685    2.4118   -5.5637 H         1 <0>         0.0601
     56 H18        -3.1756   -2.9428   -8.3269 H         1 <0>         0.0688
     57 H19        -4.1842   -1.6345   -8.9071 H         1 <0>         0.0630
     58 H20        -0.5812    0.1087   -5.3971 H         1 <0>         0.0807
     59 H21        -2.2993   -0.0031   -5.0104 H         1 <0>         0.0380
     60 H22        -3.8377   -0.3598   -7.0886 H         1 <0>         0.0484
     61 H23        -3.2188   -1.8335   -6.3463 H         1 <0>         0.0697
     62 H24        -1.7729    2.4744   -8.2803 H         1 <0>         0.0843
     63 H25         6.3486    5.0561   -5.8408 H         1 <0>         0.0831
     64 H26        -1.8489   -1.5475  -11.6898 H         1 <0>         0.0704
     65 H27        -3.4798   -1.1578  -11.1818 H         1 <0>         0.0718
     66 H28         0.3683    5.4079   -8.8774 H         1 <0>         0.0606
     67 H29         1.7918    5.0040   -9.8306 H         1 <0>         0.0458
     68 H30         1.2300    7.6523   -8.4256 H         1 <0>         0.0375
     69 H31         2.7093    7.3123   -9.3176 H         1 <0>         0.0392
     70 H32         1.7604    5.7005   -6.8419 H         1 <0>         0.0606
     71 H33         3.2243    5.3739   -7.7660 H         1 <0>         0.0579
     72 H34        -0.1287    7.3572  -10.4981 H         1 <0>         0.0571
     73 H35         1.3345    6.9786  -11.4193 H         1 <0>         0.0503
     74 H36         2.4714    3.0747   -8.2388 H         1 <0>         0.0993
     75 H37        -0.6260   -2.4640   -8.3900 H         1 <0>         0.3700
     76 H38        -0.2603   -2.3800  -10.0968 H         1 <0>         0.3660
     77 H39         0.7014    9.4044  -11.5317 H         1 <0>         0.3465
     78 H40         1.9755    9.3785  -10.3359 H         1 <0>         0.3446
     79 H41         5.1001    2.5754   -6.7883 H         1 <0>         0.3148
     80 H42        -0.0552    3.8781   -7.0434 H         1 <0>         0.3220
@<TRIPOS>BOND
     1    1    2 ar
     2    1    3 ar
     3    2    4 ar
     4    3    5 ar
     5    4    6 ar
     6    5    6 ar
     7    6   23 1
     8    7   22 1
     9    7   29 am
    10    7   35 2
    11    8    9 1
    12    8   28 1
    13    8   36 2
    14    9   33 am
    15    9   37 2
    16   10   20 1
    17   10   34 am
    18   10   38 2
    19   11   12 1
    20   11   13 1
    21   12   14 1
    22   13   15 1
    23   14   21 1
    24   15   21 1
    25   16   18 1
    26   16   20 1
    27   17   19 1
    28   17   22 1
    29   18   30 1
    30   19   30 1
    31   20   29 1
    32   21   33 1
    33   22   23 1
    34   22   31 1
    35   24   25 1
    36   24   26 1
    37   25   27 1
    38   26   28 1
    39   27   32 1
    40   28   34 1
    41   29   30 1
    42    1   39 1
    43    2   40 1
    44    3   41 1
    45    4   42 1
    46    5   43 1
    47   11   44 1
    48   11   45 1
    49   12   46 1
    50   12   47 1
    51   13   48 1
    52   13   49 1
    53   14   50 1
    54   14   51 1
    55   15   52 1
    56   15   53 1
    57   16   54 1
    58   16   55 1
    59   17   56 1
    60   17   57 1
    61   18   58 1
    62   18   59 1
    63   19   60 1
    64   19   61 1
    65   20   62 1
    66   21   63 1
    67   23   64 1
    68   23   65 1
    69   24   66 1
    70   24   67 1
    71   25   68 1
    72   25   69 1
    73   26   70 1
    74   26   71 1
    75   27   72 1
    76   27   73 1
    77   28   74 1
    78   31   75 1
    79   31   76 1
    80   32   77 1
    81   32   78 1
    82   33   79 1
    83   34   80 1
@<TRIPOS>MOLECULE
1a46_ligand_193
   80    83     0     0     0
SMALL
USER_CHARGES

mmff94s_NoEstat = 84.94
@<TRIPOS>ATOM
      1 C1         -6.7822    9.5030   -7.7682 C.ar      1 <0>        -0.1300
      2 C2         -5.4163    9.7853   -7.7613 C.ar      1 <0>        -0.1323
      3 C3         -7.2347    8.2371   -7.3962 C.ar      1 <0>        -0.1309
      4 C4         -4.5027    8.8017   -7.3825 C.ar      1 <0>        -0.1275
      5 C5         -6.3211    7.2534   -7.0174 C.ar      1 <0>        -0.1272
      6 C6         -4.9611    7.5422   -7.0130 C.ar      1 <0>        -0.0843
      7 C7         -2.5118    4.5743   -7.4005 C.2       1 <0>         0.6709
      8 C8          2.7796    3.2097   -6.1637 C.2       1 <0>         0.4867
      9 C9          2.2829    2.0299   -5.3801 C.2       1 <0>         0.5883
     10 C10        -0.0591    2.8141   -8.5012 C.2       1 <0>         0.6572
     11 C11         3.8521   -2.7307   -3.3579 C.3       1 <0>        -0.0802
     12 C12         3.3647   -2.7824   -4.8031 C.3       1 <0>        -0.0765
     13 C13         3.2011   -1.5875   -2.5845 C.3       1 <0>        -0.0774
     14 C14         3.5595   -1.4430   -5.5118 C.3       1 <0>        -0.0953
     15 C15         3.3964   -0.2468   -3.2904 C.3       1 <0>        -0.0906
     16 C16        -2.0373    1.4899   -9.2879 C.3       1 <0>        -0.0871
     17 C17        -4.7351    5.0124   -8.5142 C.3       1 <0>        -0.0716
     18 C18        -2.6100    2.4429  -10.3352 C.3       1 <0>         0.1333
     19 C19        -4.4053    3.7655   -9.3528 C.3       1 <0>         0.1246
     20 C20        -1.4789    2.4202   -8.2321 C.3       1 <0>         0.0606
     21 C21         2.8945   -0.2997   -4.7376 C.3       1 <0>         0.1012
     22 C22        -3.5177    5.6586   -7.8120 C.3       1 <0>         0.1554
     23 C23        -3.9784    6.4841   -6.6055 C.3       1 <0>        -0.0356
     24 C24         1.4445    5.5921   -8.9731 C.3       1 <0>        -0.0795
     25 C25         1.6370    7.0835   -9.2718 C.3       1 <0>        -0.1203
     26 C26         2.1570    5.1335   -7.6933 C.3       1 <0>        -0.0920
     27 C27         0.9502    7.5360  -10.5601 C.3       1 <0>         0.1502
     28 C28         2.0196    3.6328   -7.4097 C.3       1 <0>         0.0224
     29 N1         -2.2867    3.6162   -8.3768 N.am      1 <0>        -0.3553
     30 N2         -2.9688    3.6719   -9.6065 N.3       1 <0>        -0.4320
     31 N3         -2.7962    6.5469   -8.7349 N.3       1 <0>        -0.9031
     32 N4          1.1922    8.9569  -10.7874 N.3       1 <0>        -0.9068
     33 N5          3.1633    0.9734   -5.4035 N.am      1 <0>        -0.5526
     34 N6          0.6426    3.2153   -7.3763 N.am      1 <0>        -0.5576
     35 O1         -1.9526    4.5762   -6.3040 O.2       1 <0>        -0.6710
     36 O2          3.8302    3.7133   -5.7870 O.2       1 <0>        -0.4901
     37 O3          1.1896    2.1176   -4.8457 O.2       1 <0>        -0.5902
     38 O4          0.3766    2.7593   -9.6452 O.2       1 <0>        -0.5833
     39 H1         -7.4936   10.2689   -8.0633 H         1 <0>         0.1320
     40 H2         -5.0642   10.7711   -8.0510 H         1 <0>         0.1324
     41 H3         -8.2983    8.0173   -7.4018 H         1 <0>         0.1328
     42 H4         -3.4404    9.0308   -7.3802 H         1 <0>         0.1324
     43 H5         -6.6828    6.2700   -6.7292 H         1 <0>         0.1434
     44 H6          3.6347   -3.6829   -2.8611 H         1 <0>         0.0405
     45 H7          4.9418   -2.6046   -3.3455 H         1 <0>         0.0421
     46 H8          3.9027   -3.5679   -5.3456 H         1 <0>         0.0362
     47 H9          2.3016   -3.0522   -4.8208 H         1 <0>         0.0439
     48 H10         2.1283   -1.7867   -2.4713 H         1 <0>         0.0350
     49 H11         3.6248   -1.5374   -1.5751 H         1 <0>         0.0428
     50 H12         4.6333   -1.2441   -5.6262 H         1 <0>         0.0663
     51 H13         3.1451   -1.4996   -6.5258 H         1 <0>         0.0466
     52 H14         2.8670    0.5397   -2.7390 H         1 <0>         0.0493
     53 H15         4.4605    0.0234   -3.2719 H         1 <0>         0.0520
     54 H16        -2.8519    0.8938   -8.8584 H         1 <0>         0.0915
     55 H17        -1.2935    0.8073   -9.7102 H         1 <0>         0.0601
     56 H18        -5.2314    5.7584   -9.1499 H         1 <0>         0.0688
     57 H19        -5.4801    4.7212   -7.7613 H         1 <0>         0.0630
     58 H20        -1.8289    2.6942  -11.0628 H         1 <0>         0.0807
     59 H21        -3.4401    1.9950  -10.8925 H         1 <0>         0.0380
     60 H22        -4.7690    2.8732   -8.8248 H         1 <0>         0.0484
     61 H23        -4.9562    3.8199  -10.2995 H         1 <0>         0.0697
     62 H24        -1.5441    2.0192   -7.2167 H         1 <0>         0.0843
     63 H25         1.8060   -0.4283   -4.7482 H         1 <0>         0.0831
     64 H26        -3.1056    6.9377   -6.1322 H         1 <0>         0.0704
     65 H27        -4.4243    5.8149   -5.8674 H         1 <0>         0.0718
     66 H28         0.3683    5.4079   -8.8774 H         1 <0>         0.0606
     67 H29         1.7918    5.0040   -9.8306 H         1 <0>         0.0458
     68 H30         1.2300    7.6523   -8.4256 H         1 <0>         0.0375
     69 H31         2.7093    7.3123   -9.3176 H         1 <0>         0.0392
     70 H32         1.7604    5.7005   -6.8419 H         1 <0>         0.0606
     71 H33         3.2243    5.3739   -7.7660 H         1 <0>         0.0579
     72 H34        -0.1287    7.3572  -10.4981 H         1 <0>         0.0571
     73 H35         1.3345    6.9786  -11.4193 H         1 <0>         0.0503
     74 H36         2.4714    3.0747   -8.2388 H         1 <0>         0.0993
     75 H37        -2.7475    6.2791   -9.6905 H         1 <0>         0.3700
     76 H38        -2.2234    7.2564   -8.3400 H         1 <0>         0.3660
     77 H39         0.7014    9.4044  -11.5317 H         1 <0>         0.3465
     78 H40         1.9755    9.3785  -10.3359 H         1 <0>         0.3446
     79 H41         4.0392    1.0827   -5.9058 H         1 <0>         0.3148
     80 H42         0.1596    3.2148   -6.4798 H         1 <0>         0.3220
@<TRIPOS>BOND
     1    1    2 ar
     2    1    3 ar
     3    2    4 ar
     4    3    5 ar
     5    4    6 ar
     6    5    6 ar
     7    6   23 1
     8    7   22 1
     9    7   29 am
    10    7   35 2
    11    8    9 1
    12    8   28 1
    13    8   36 2
    14    9   33 am
    15    9   37 2
    16   10   20 1
    17   10   34 am
    18   10   38 2
    19   11   12 1
    20   11   13 1
    21   12   14 1
    22   13   15 1
    23   14   21 1
    24   15   21 1
    25   16   18 1
    26   16   20 1
    27   17   19 1
    28   17   22 1
    29   18   30 1
    30   19   30 1
    31   20   29 1
    32   21   33 1
    33   22   23 1
    34   22   31 1
    35   24   25 1
    36   24   26 1
    37   25   27 1
    38   26   28 1
    39   27   32 1
    40   28   34 1
    41   29   30 1
    42    1   39 1
    43    2   40 1
    44    3   41 1
    45    4   42 1
    46    5   43 1
    47   11   44 1
    48   11   45 1
    49   12   46 1
    50   12   47 1
    51   13   48 1
    52   13   49 1
    53   14   50 1
    54   14   51 1
    55   15   52 1
    56   15   53 1
    57   16   54 1
    58   16   55 1
    59   17   56 1
    60   17   57 1
    61   18   58 1
    62   18   59 1
    63   19   60 1
    64   19   61 1
    65   20   62 1
    66   21   63 1
    67   23   64 1
    68   23   65 1
    69   24   66 1
    70   24   67 1
    71   25   68 1
    72   25   69 1
    73   26   70 1
    74   26   71 1
    75   27   72 1
    76   27   73 1
    77   28   74 1
    78   31   75 1
    79   31   76 1
    80   32   77 1
    81   32   78 1
    82   33   79 1
    83   34   80 1
@<TRIPOS>MOLECULE
1a46_ligand_194
   80    83     0     0     0
SMALL
USER_CHARGES

mmff94s_NoEstat = 84.95
@<TRIPOS>ATOM
      1 C1         -3.7305   -5.9204  -11.3537 C.ar      1 <0>        -0.1300
      2 C2         -2.4262   -5.5183  -11.6410 C.ar      1 <0>        -0.1323
      3 C3         -4.6750   -4.9808  -10.9404 C.ar      1 <0>        -0.1309
      4 C4         -2.0662   -4.1766  -11.5149 C.ar      1 <0>        -0.1275
      5 C5         -4.3150   -3.6391  -10.8142 C.ar      1 <0>        -0.1272
      6 C6         -3.0129   -3.2458  -11.1023 C.ar      1 <0>        -0.0843
      7 C7         -1.7147   -0.0189   -9.4111 C.2       1 <0>         0.6709
      8 C8          2.7796    3.2097   -6.1637 C.2       1 <0>         0.4867
      9 C9          3.9990    3.9872   -5.7623 C.2       1 <0>         0.5883
     10 C10         0.2181    1.9581   -7.7739 C.2       1 <0>         0.6572
     11 C11         8.7514    5.7578   -7.6316 C.3       1 <0>        -0.0802
     12 C12         8.7810    4.3461   -7.0528 C.3       1 <0>        -0.0765
     13 C13         7.6561    6.6061   -6.9916 C.3       1 <0>        -0.0774
     14 C14         7.4158    3.6675   -7.1522 C.3       1 <0>        -0.0953
     15 C15         6.2896    5.9304   -7.0917 C.3       1 <0>        -0.0906
     16 C16        -1.7326    1.7367   -6.2145 C.3       1 <0>        -0.0871
     17 C17        -3.1871   -1.8587   -8.5042 C.3       1 <0>        -0.0716
     18 C18        -1.5889    0.2745   -5.7969 C.3       1 <0>         0.1333
     19 C19        -3.0480   -1.1203   -7.1617 C.3       1 <0>         0.1246
     20 C20        -1.2590    1.7411   -7.6524 C.3       1 <0>         0.0606
     21 C21         6.3208    4.5176   -6.4984 C.3       1 <0>         0.1012
     22 C22        -2.1125   -1.4947   -9.5555 C.3       1 <0>         0.1554
     23 C23        -2.6257   -1.8026  -10.9666 C.3       1 <0>        -0.0356
     24 C24         1.5857    6.0302   -6.5865 C.3       1 <0>        -0.0795
     25 C25         1.6811    7.5259   -6.9095 C.3       1 <0>        -0.1203
     26 C26         2.1570    5.1335   -7.6933 C.3       1 <0>        -0.0920
     27 C27         1.0885    8.4192   -5.8200 C.3       1 <0>         0.1502
     28 C28         2.0196    3.6328   -7.4097 C.3       1 <0>         0.0224
     29 N1         -1.5278    0.3875   -8.0990 N.am      1 <0>        -0.3553
     30 N2         -1.7250   -0.5121   -7.0349 N.3       1 <0>        -0.4320
     31 N3         -0.8818   -2.2667   -9.3297 N.3       1 <0>        -0.9031
     32 N4          1.1980    9.8225   -6.2046 N.3       1 <0>        -0.9068
     33 N5          5.0202    3.8750   -6.6769 N.am      1 <0>        -0.5526
     34 N6          0.6426    3.2153   -7.3763 N.am      1 <0>        -0.5576
     35 O1         -1.5651    0.7213  -10.3831 O.2       1 <0>        -0.6710
     36 O2          2.4233    2.3196   -5.4021 O.2       1 <0>        -0.4901
     37 O3          3.9681    4.5934   -4.7038 O.2       1 <0>        -0.5902
     38 O4          0.9290    1.0536   -8.1959 O.2       1 <0>        -0.5833
     39 H1         -4.0108   -6.9651  -11.4519 H         1 <0>         0.1320
     40 H2         -1.6909   -6.2500  -11.9629 H         1 <0>         0.1324
     41 H3         -5.6906   -5.2940  -10.7166 H         1 <0>         0.1328
     42 H4         -1.0476   -3.8726  -11.7408 H         1 <0>         0.1324
     43 H5         -5.0575   -2.9141  -10.4915 H         1 <0>         0.1434
     44 H6          9.7248    6.2383   -7.4816 H         1 <0>         0.0405
     45 H7          8.5844    5.7039   -8.7144 H         1 <0>         0.0421
     46 H8          9.5299    3.7463   -7.5821 H         1 <0>         0.0362
     47 H9          9.0904    4.3887   -6.0012 H         1 <0>         0.0439
     48 H10         7.8990    6.7820   -5.9365 H         1 <0>         0.0350
     49 H11         7.6183    7.5872   -7.4785 H         1 <0>         0.0428
     50 H12         7.1730    3.4905   -8.2083 H         1 <0>         0.0663
     51 H13         7.4595    2.6812   -6.6746 H         1 <0>         0.0466
     52 H14         5.5396    6.5385   -6.5714 H         1 <0>         0.0493
     53 H15         5.9798    5.8886   -8.1443 H         1 <0>         0.0520
     54 H16        -2.7915    2.0208   -6.1758 H         1 <0>         0.0915
     55 H17        -1.1685    2.4118   -5.5637 H         1 <0>         0.0601
     56 H18        -3.1756   -2.9428   -8.3269 H         1 <0>         0.0688
     57 H19        -4.1842   -1.6345   -8.9071 H         1 <0>         0.0630
     58 H20        -0.5812    0.1087   -5.3971 H         1 <0>         0.0807
     59 H21        -2.2993   -0.0031   -5.0104 H         1 <0>         0.0380
     60 H22        -3.8377   -0.3598   -7.0886 H         1 <0>         0.0484
     61 H23        -3.2188   -1.8335   -6.3463 H         1 <0>         0.0697
     62 H24        -1.7729    2.4744   -8.2803 H         1 <0>         0.0843
     63 H25         6.4904    4.5731   -5.4169 H         1 <0>         0.0831
     64 H26        -1.8489   -1.5475  -11.6898 H         1 <0>         0.0704
     65 H27        -3.4798   -1.1578  -11.1818 H         1 <0>         0.0718
     66 H28         2.1358    5.8550   -5.6547 H         1 <0>         0.0606
     67 H29         0.5392    5.7688   -6.3906 H         1 <0>         0.0458
     68 H30         2.7419    7.7748   -7.0444 H         1 <0>         0.0375
     69 H31         1.1870    7.7255   -7.8687 H         1 <0>         0.0392
     70 H32         3.2164    5.3787   -7.8393 H         1 <0>         0.0606
     71 H33         1.6466    5.3535   -8.6384 H         1 <0>         0.0579
     72 H34         1.6137    8.2608   -4.8719 H         1 <0>         0.0571
     73 H35         0.0315    8.1861   -5.6617 H         1 <0>         0.0503
     74 H36         2.4714    3.0747   -8.2388 H         1 <0>         0.0993
     75 H37        -0.6260   -2.4640   -8.3900 H         1 <0>         0.3700
     76 H38        -0.2603   -2.3800  -10.0968 H         1 <0>         0.3660
     77 H39         0.9557   10.5154   -5.5293 H         1 <0>         0.3465
     78 H40         1.3102   10.0373   -7.1723 H         1 <0>         0.3446
     79 H41         4.8635    3.3209   -7.5135 H         1 <0>         0.3148
     80 H42        -0.0552    3.8781   -7.0434 H         1 <0>         0.3220
@<TRIPOS>BOND
     1    1    2 ar
     2    1    3 ar
     3    2    4 ar
     4    3    5 ar
     5    4    6 ar
     6    5    6 ar
     7    6   23 1
     8    7   22 1
     9    7   29 am
    10    7   35 2
    11    8    9 1
    12    8   28 1
    13    8   36 2
    14    9   33 am
    15    9   37 2
    16   10   20 1
    17   10   34 am
    18   10   38 2
    19   11   12 1
    20   11   13 1
    21   12   14 1
    22   13   15 1
    23   14   21 1
    24   15   21 1
    25   16   18 1
    26   16   20 1
    27   17   19 1
    28   17   22 1
    29   18   30 1
    30   19   30 1
    31   20   29 1
    32   21   33 1
    33   22   23 1
    34   22   31 1
    35   24   25 1
    36   24   26 1
    37   25   27 1
    38   26   28 1
    39   27   32 1
    40   28   34 1
    41   29   30 1
    42    1   39 1
    43    2   40 1
    44    3   41 1
    45    4   42 1
    46    5   43 1
    47   11   44 1
    48   11   45 1
    49   12   46 1
    50   12   47 1
    51   13   48 1
    52   13   49 1
    53   14   50 1
    54   14   51 1
    55   15   52 1
    56   15   53 1
    57   16   54 1
    58   16   55 1
    59   17   56 1
    60   17   57 1
    61   18   58 1
    62   18   59 1
    63   19   60 1
    64   19   61 1
    65   20   62 1
    66   21   63 1
    67   23   64 1
    68   23   65 1
    69   24   66 1
    70   24   67 1
    71   25   68 1
    72   25   69 1
    73   26   70 1
    74   26   71 1
    75   27   72 1
    76   27   73 1
    77   28   74 1
    78   31   75 1
    79   31   76 1
    80   32   77 1
    81   32   78 1
    82   33   79 1
    83   34   80 1
@<TRIPOS>MOLECULE
1a46_ligand_195
   80    83     0     0     0
SMALL
USER_CHARGES

mmff94s_NoEstat = 85.00
@<TRIPOS>ATOM
      1 C1         -5.9518    1.0529  -15.7574 C.ar      1 <0>        -0.1300
      2 C2         -4.7078    1.6646  -15.9115 C.ar      1 <0>        -0.1323
      3 C3         -6.6077    1.1063  -14.5275 C.ar      1 <0>        -0.1309
      4 C4         -4.1196    2.3297  -14.8357 C.ar      1 <0>        -0.1275
      5 C5         -6.0195    1.7714  -13.4517 C.ar      1 <0>        -0.1272
      6 C6         -4.7793    2.3787  -13.6128 C.ar      1 <0>        -0.0843
      7 C7         -2.6173    2.8751  -10.4447 C.2       1 <0>         0.6709
      8 C8          2.7796    3.2097   -6.1637 C.2       1 <0>         0.4867
      9 C9          4.2189    2.8058   -6.2975 C.2       1 <0>         0.5883
     10 C10        -0.0591    2.8141   -8.5012 C.2       1 <0>         0.6572
     11 C11         9.1543    3.8507   -4.3573 C.3       1 <0>        -0.0802
     12 C12         8.7221    4.7471   -5.5143 C.3       1 <0>        -0.0765
     13 C13         8.4743    2.4859   -4.4178 C.3       1 <0>        -0.0774
     14 C14         7.2019    4.8805   -5.5864 C.3       1 <0>        -0.0953
     15 C15         6.9538    2.6168   -4.4880 C.3       1 <0>        -0.0906
     16 C16        -1.5879    1.1654   -7.3921 C.3       1 <0>        -0.0871
     17 C17        -4.1019    0.9486  -11.1228 C.3       1 <0>        -0.0716
     18 C18        -1.5823    0.0424   -8.4274 C.3       1 <0>         0.1333
     19 C19        -3.5290    0.2485   -9.8784 C.3       1 <0>         0.1246
     20 C20        -1.4789    2.4202   -8.2321 C.3       1 <0>         0.0606
     21 C21         6.5237    3.5079   -5.6584 C.3       1 <0>         0.1012
     22 C22        -3.2673    2.1480  -11.6303 C.3       1 <0>         0.1554
     23 C23        -4.1466    3.0941  -12.4556 C.3       1 <0>        -0.0356
     24 C24         1.4445    5.5921   -8.9731 C.3       1 <0>        -0.0795
     25 C25         1.6370    7.0835   -9.2718 C.3       1 <0>        -0.1203
     26 C26         2.1570    5.1335   -7.6933 C.3       1 <0>        -0.0920
     27 C27         0.9502    7.5360  -10.5601 C.3       1 <0>         0.1502
     28 C28         2.0196    3.6328   -7.4097 C.3       1 <0>         0.0224
     29 N1         -2.0587    2.0261   -9.5019 N.am      1 <0>        -0.3553
     30 N2         -2.1349    0.6298   -9.6602 N.3       1 <0>        -0.4320
     31 N3         -2.1572    1.6877  -12.4773 N.3       1 <0>        -0.9031
     32 N4          1.1922    8.9569  -10.7874 N.3       1 <0>        -0.9068
     33 N5          5.0712    3.6706   -5.6514 N.am      1 <0>        -0.5526
     34 N6          0.6426    3.2153   -7.3763 N.am      1 <0>        -0.5576
     35 O1         -2.5899    4.1027  -10.3594 O.2       1 <0>        -0.6710
     36 O2          2.3266    3.2509   -5.0269 O.2       1 <0>        -0.4901
     37 O3          4.4746    1.8096   -6.9540 O.2       1 <0>        -0.5902
     38 O4          0.3766    2.7593   -9.6452 O.2       1 <0>        -0.5833
     39 H1         -6.4098    0.5350  -16.5951 H         1 <0>         0.1320
     40 H2         -4.1972    1.6230  -16.8692 H         1 <0>         0.1324
     41 H3         -7.5763    0.6298  -14.4076 H         1 <0>         0.1328
     42 H4         -3.1501    2.8034  -14.9651 H         1 <0>         0.1324
     43 H5         -6.5379    1.8077  -12.4972 H         1 <0>         0.1434
     44 H6         10.2423    3.7218   -4.3773 H         1 <0>         0.0405
     45 H7          8.9071    4.3389   -3.4066 H         1 <0>         0.0421
     46 H8          9.1740    5.7390   -5.4008 H         1 <0>         0.0362
     47 H9          9.0961    4.3315   -6.4581 H         1 <0>         0.0439
     48 H10         8.8335    1.9368   -5.2969 H         1 <0>         0.0350
     49 H11         8.7529    1.8962   -3.5371 H         1 <0>         0.0428
     50 H12         6.8423    5.4310   -4.7070 H         1 <0>         0.0663
     51 H13         6.9263    5.4808   -6.4620 H         1 <0>         0.0466
     52 H14         6.5033    1.6220   -4.5896 H         1 <0>         0.0493
     53 H15         6.5797    3.0321   -3.5429 H         1 <0>         0.0520
     54 H16        -2.5475    1.1615   -6.8606 H         1 <0>         0.0915
     55 H17        -0.7842    1.0569   -6.6575 H         1 <0>         0.0601
     56 H18        -4.2204    0.2148  -11.9317 H         1 <0>         0.0688
     57 H19        -5.1178    1.2870  -10.8778 H         1 <0>         0.0630
     58 H20        -0.5477   -0.2605   -8.6286 H         1 <0>         0.0807
     59 H21        -2.1179   -0.8467   -8.0766 H         1 <0>         0.0380
     60 H22        -4.1468    0.5063   -9.0071 H         1 <0>         0.0484
     61 H23        -3.6100   -0.8367  -10.0142 H         1 <0>         0.0697
     62 H24        -2.0054    3.2790   -7.8063 H         1 <0>         0.0843
     63 H25         6.7738    3.0199   -6.6076 H         1 <0>         0.0831
     64 H26        -3.5359    3.9262  -12.8108 H         1 <0>         0.0704
     65 H27        -4.9137    3.5213  -11.8072 H         1 <0>         0.0718
     66 H28         0.3683    5.4079   -8.8774 H         1 <0>         0.0606
     67 H29         1.7918    5.0040   -9.8306 H         1 <0>         0.0458
     68 H30         1.2300    7.6523   -8.4256 H         1 <0>         0.0375
     69 H31         2.7093    7.3123   -9.3176 H         1 <0>         0.0392
     70 H32         1.7604    5.7005   -6.8419 H         1 <0>         0.0606
     71 H33         3.2243    5.3739   -7.7660 H         1 <0>         0.0579
     72 H34        -0.1287    7.3572  -10.4981 H         1 <0>         0.0571
     73 H35         1.3345    6.9786  -11.4193 H         1 <0>         0.0503
     74 H36         2.4714    3.0747   -8.2388 H         1 <0>         0.0993
     75 H37        -1.7180    0.8294  -12.2371 H         1 <0>         0.3700
     76 H38        -1.7642    2.3382  -13.1175 H         1 <0>         0.3660
     77 H39         0.7014    9.4044  -11.5317 H         1 <0>         0.3465
     78 H40         1.9755    9.3785  -10.3359 H         1 <0>         0.3446
     79 H41         4.6735    4.4573   -5.1469 H         1 <0>         0.3148
     80 H42         0.1596    3.2148   -6.4798 H         1 <0>         0.3220
@<TRIPOS>BOND
     1    1    2 ar
     2    1    3 ar
     3    2    4 ar
     4    3    5 ar
     5    4    6 ar
     6    5    6 ar
     7    6   23 1
     8    7   22 1
     9    7   29 am
    10    7   35 2
    11    8    9 1
    12    8   28 1
    13    8   36 2
    14    9   33 am
    15    9   37 2
    16   10   20 1
    17   10   34 am
    18   10   38 2
    19   11   12 1
    20   11   13 1
    21   12   14 1
    22   13   15 1
    23   14   21 1
    24   15   21 1
    25   16   18 1
    26   16   20 1
    27   17   19 1
    28   17   22 1
    29   18   30 1
    30   19   30 1
    31   20   29 1
    32   21   33 1
    33   22   23 1
    34   22   31 1
    35   24   25 1
    36   24   26 1
    37   25   27 1
    38   26   28 1
    39   27   32 1
    40   28   34 1
    41   29   30 1
    42    1   39 1
    43    2   40 1
    44    3   41 1
    45    4   42 1
    46    5   43 1
    47   11   44 1
    48   11   45 1
    49   12   46 1
    50   12   47 1
    51   13   48 1
    52   13   49 1
    53   14   50 1
    54   14   51 1
    55   15   52 1
    56   15   53 1
    57   16   54 1
    58   16   55 1
    59   17   56 1
    60   17   57 1
    61   18   58 1
    62   18   59 1
    63   19   60 1
    64   19   61 1
    65   20   62 1
    66   21   63 1
    67   23   64 1
    68   23   65 1
    69   24   66 1
    70   24   67 1
    71   25   68 1
    72   25   69 1
    73   26   70 1
    74   26   71 1
    75   27   72 1
    76   27   73 1
    77   28   74 1
    78   31   75 1
    79   31   76 1
    80   32   77 1
    81   32   78 1
    82   33   79 1
    83   34   80 1
@<TRIPOS>MOLECULE
1a46_ligand_196
   80    83     0     0     0
SMALL
USER_CHARGES

mmff94s_NoEstat = 85.01
@<TRIPOS>ATOM
      1 C1          9.0003   12.0144   -5.4225 C.ar      1 <0>        -0.1300
      2 C2          9.4537   11.5665   -4.1818 C.ar      1 <0>        -0.1323
      3 C3          7.8120   11.5127   -5.9535 C.ar      1 <0>        -0.1309
      4 C4          8.7189   10.6167   -3.4722 C.ar      1 <0>        -0.1275
      5 C5          7.0772   10.5629   -5.2439 C.ar      1 <0>        -0.1272
      6 C6          7.5355   10.1211   -4.0078 C.ar      1 <0>        -0.0843
      7 C7          6.3757    6.6257   -2.8269 C.2       1 <0>         0.6709
      8 C8          5.2358    2.3798    1.5634 C.2       1 <0>         0.4867
      9 C9          5.3950    2.3039    3.0538 C.2       1 <0>         0.5883
     10 C10         6.5256    3.6321   -1.6689 C.2       1 <0>         0.6572
     11 C11         8.2255   -1.3143    4.8687 C.3       1 <0>        -0.0802
     12 C12         6.7106   -1.2204    4.7072 C.3       1 <0>        -0.0765
     13 C13         8.9327   -0.0675    4.3441 C.3       1 <0>        -0.0774
     14 C14         6.1552    0.0559    5.3406 C.3       1 <0>        -0.0953
     15 C15         8.3722    1.2061    4.9787 C.3       1 <0>        -0.0906
     16 C16         5.8400    3.2307   -4.0468 C.3       1 <0>        -0.0871
     17 C17         7.0291    7.4385   -5.1265 C.3       1 <0>        -0.0716
     18 C18         7.1120    3.6562   -4.7776 C.3       1 <0>         0.1333
     19 C19         6.8955    5.9616   -5.5361 C.3       1 <0>         0.1246
     20 C20         5.7868    4.1659   -2.8575 C.3       1 <0>         0.0606
     21 C21         6.8497    1.3253    4.8295 C.3       1 <0>         0.1012
     22 C22         7.1815    7.6752   -3.6055 C.3       1 <0>         0.1554
     23 C23         6.7451    9.0995   -3.2444 C.3       1 <0>        -0.0356
     24 C24         6.0158    5.3379    2.0114 C.3       1 <0>        -0.0795
     25 C25         6.7209    6.4716    2.7653 C.3       1 <0>        -0.1203
     26 C26         6.9719    4.2276    1.5544 C.3       1 <0>        -0.0920
     27 C27         5.7742    7.5909    3.1979 C.3       1 <0>         0.1502
     28 C28         6.2906    3.1130    0.7514 C.3       1 <0>         0.0224
     29 N1          6.5101    5.3360   -3.3173 N.am      1 <0>        -0.3553
     30 N2          7.3084    5.0783   -4.4472 N.3       1 <0>        -0.4320
     31 N3          8.5804    7.4980   -3.1893 N.3       1 <0>        -0.9031
     32 N4          4.7531    7.0666    4.0988 N.3       1 <0>        -0.9068
     33 N5          6.4949    1.5685    3.4295 N.am      1 <0>        -0.5526
     34 N6          5.7762    3.5917   -0.5046 N.am      1 <0>        -0.5576
     35 O1          5.6876    6.9159   -1.8485 O.2       1 <0>        -0.6710
     36 O2          4.2060    1.9080    1.0985 O.2       1 <0>        -0.4901
     37 O3          4.5583    2.8586    3.7473 O.2       1 <0>        -0.5902
     38 O4          7.6924    3.2783   -1.7917 O.2       1 <0>        -0.5833
     39 H1          9.5724   12.7539   -5.9752 H         1 <0>         0.1320
     40 H2         10.3789   11.9573   -3.7685 H         1 <0>         0.1324
     41 H3          7.4591   11.8615   -6.9197 H         1 <0>         0.1328
     42 H4          9.0800   10.2736   -2.5062 H         1 <0>         0.1324
     43 H5          6.1526   10.1776   -5.6655 H         1 <0>         0.1434
     44 H6          8.4691   -1.4496    5.9298 H         1 <0>         0.0405
     45 H7          8.5986   -2.1995    4.3412 H         1 <0>         0.0421
     46 H8          6.4541   -1.2475    3.6412 H         1 <0>         0.0362
     47 H9          6.2374   -2.0946    5.1688 H         1 <0>         0.0439
     48 H10        10.0063   -0.1392    4.5524 H         1 <0>         0.0350
     49 H11         8.8243   -0.0173    3.2539 H         1 <0>         0.0428
     50 H12         5.0767    0.1130    5.1494 H         1 <0>         0.0663
     51 H13         6.2821   -0.0051    6.4290 H         1 <0>         0.0466
     52 H14         8.6266    1.2112    6.0463 H         1 <0>         0.0493
     53 H15         8.8643    2.0779    4.5308 H         1 <0>         0.0520
     54 H16         4.9736    3.4114   -4.6951 H         1 <0>         0.0915
     55 H17         5.8531    2.1713   -3.7729 H         1 <0>         0.0601
     56 H18         7.8805    7.8879   -5.6555 H         1 <0>         0.0688
     57 H19         6.1391    7.9685   -5.4921 H         1 <0>         0.0630
     58 H20         7.9647    3.0932   -4.3794 H         1 <0>         0.0807
     59 H21         7.0607    3.4497   -5.8523 H         1 <0>         0.0380
     60 H22         5.8545    5.7643   -5.8276 H         1 <0>         0.0484
     61 H23         7.5124    5.7838   -6.4252 H         1 <0>         0.0697
     62 H24         4.7698    4.4250   -2.5496 H         1 <0>         0.0843
     63 H25         6.4887    2.1963    5.3865 H         1 <0>         0.0831
     64 H26         6.8700    9.2469   -2.1701 H         1 <0>         0.0704
     65 H27         5.6795    9.2080   -3.4549 H         1 <0>         0.0718
     66 H28         5.2579    4.9142    2.6804 H         1 <0>         0.0606
     67 H29         5.4809    5.7546    1.1500 H         1 <0>         0.0458
     68 H30         7.2000    6.0392    3.6534 H         1 <0>         0.0375
     69 H31         7.5258    6.8807    2.1417 H         1 <0>         0.0392
     70 H32         7.4599    3.7926    2.4354 H         1 <0>         0.0606
     71 H33         7.7645    4.6634    0.9347 H         1 <0>         0.0579
     72 H34         5.2908    8.0386    2.3228 H         1 <0>         0.0571
     73 H35         6.3225    8.3806    3.7198 H         1 <0>         0.0503
     74 H36         7.0421    2.3587    0.4881 H         1 <0>         0.0993
     75 H37         9.1142    6.7979   -3.6499 H         1 <0>         0.3700
     76 H38         8.8693    7.9327   -2.3437 H         1 <0>         0.3660
     77 H39         4.0028    7.6695    4.3608 H         1 <0>         0.3465
     78 H40         4.9421    6.2118    4.5770 H         1 <0>         0.3446
     79 H41         7.0876    1.1766    2.7037 H         1 <0>         0.3148
     80 H42         4.8120    3.9176   -0.5391 H         1 <0>         0.3220
@<TRIPOS>BOND
     1    1    2 ar
     2    1    3 ar
     3    2    4 ar
     4    3    5 ar
     5    4    6 ar
     6    5    6 ar
     7    6   23 1
     8    7   22 1
     9    7   29 am
    10    7   35 2
    11    8    9 1
    12    8   28 1
    13    8   36 2
    14    9   33 am
    15    9   37 2
    16   10   20 1
    17   10   34 am
    18   10   38 2
    19   11   12 1
    20   11   13 1
    21   12   14 1
    22   13   15 1
    23   14   21 1
    24   15   21 1
    25   16   18 1
    26   16   20 1
    27   17   19 1
    28   17   22 1
    29   18   30 1
    30   19   30 1
    31   20   29 1
    32   21   33 1
    33   22   23 1
    34   22   31 1
    35   24   25 1
    36   24   26 1
    37   25   27 1
    38   26   28 1
    39   27   32 1
    40   28   34 1
    41   29   30 1
    42    1   39 1
    43    2   40 1
    44    3   41 1
    45    4   42 1
    46    5   43 1
    47   11   44 1
    48   11   45 1
    49   12   46 1
    50   12   47 1
    51   13   48 1
    52   13   49 1
    53   14   50 1
    54   14   51 1
    55   15   52 1
    56   15   53 1
    57   16   54 1
    58   16   55 1
    59   17   56 1
    60   17   57 1
    61   18   58 1
    62   18   59 1
    63   19   60 1
    64   19   61 1
    65   20   62 1
    66   21   63 1
    67   23   64 1
    68   23   65 1
    69   24   66 1
    70   24   67 1
    71   25   68 1
    72   25   69 1
    73   26   70 1
    74   26   71 1
    75   27   72 1
    76   27   73 1
    77   28   74 1
    78   31   75 1
    79   31   76 1
    80   32   77 1
    81   32   78 1
    82   33   79 1
    83   34   80 1
@<TRIPOS>MOLECULE
1a46_ligand_197
   80    83     0     0     0
SMALL
USER_CHARGES

mmff94s_NoEstat = 85.03
@<TRIPOS>ATOM
      1 C1          9.0003   12.0144   -5.4225 C.ar      1 <0>        -0.1300
      2 C2          9.4537   11.5665   -4.1818 C.ar      1 <0>        -0.1323
      3 C3          7.8120   11.5127   -5.9535 C.ar      1 <0>        -0.1309
      4 C4          8.7189   10.6167   -3.4722 C.ar      1 <0>        -0.1275
      5 C5          7.0772   10.5629   -5.2439 C.ar      1 <0>        -0.1272
      6 C6          7.5355   10.1211   -4.0078 C.ar      1 <0>        -0.0843
      7 C7          6.3757    6.6257   -2.8269 C.2       1 <0>         0.6709
      8 C8          5.2358    2.3798    1.5634 C.2       1 <0>         0.4867
      9 C9          3.8230    2.3549    1.0577 C.2       1 <0>         0.5883
     10 C10         6.5256    3.6321   -1.6689 C.2       1 <0>         0.6572
     11 C11         0.3896    4.6662    3.7535 C.3       1 <0>        -0.0802
     12 C12         0.7833    3.1927    3.6928 C.3       1 <0>        -0.0765
     13 C13         1.2470    5.5235    2.8264 C.3       1 <0>        -0.0774
     14 C14         0.7693    2.6651    2.2575 C.3       1 <0>        -0.0953
     15 C15         1.2316    4.9906    1.3930 C.3       1 <0>        -0.0906
     16 C16         5.8400    3.2307   -4.0468 C.3       1 <0>        -0.0871
     17 C17         7.0291    7.4385   -5.1265 C.3       1 <0>        -0.0716
     18 C18         7.1120    3.6562   -4.7776 C.3       1 <0>         0.1333
     19 C19         6.8955    5.9616   -5.5361 C.3       1 <0>         0.1246
     20 C20         5.7868    4.1659   -2.8575 C.3       1 <0>         0.0606
     21 C21         1.6248    3.5100    1.3041 C.3       1 <0>         0.1012
     22 C22         7.1815    7.6752   -3.6055 C.3       1 <0>         0.1554
     23 C23         6.7451    9.0995   -3.2444 C.3       1 <0>        -0.0356
     24 C24         7.6485    3.7409    2.8432 C.3       1 <0>        -0.0795
     25 C25         8.2774    4.8743    3.6620 C.3       1 <0>        -0.1203
     26 C26         6.9719    4.2276    1.5544 C.3       1 <0>        -0.0920
     27 C27         8.9284    4.3945    4.9589 C.3       1 <0>         0.1502
     28 C28         6.2906    3.1130    0.7514 C.3       1 <0>         0.0224
     29 N1          6.5101    5.3360   -3.3173 N.am      1 <0>        -0.3553
     30 N2          7.3084    5.0783   -4.4472 N.3       1 <0>        -0.4320
     31 N3          8.5804    7.4980   -3.1893 N.3       1 <0>        -0.9031
     32 N4          9.4866    5.5266    5.6910 N.3       1 <0>        -0.9068
     33 N5          3.0460    3.3433    1.6158 N.am      1 <0>        -0.5526
     34 N6          5.7762    3.5917   -0.5046 N.am      1 <0>        -0.5576
     35 O1          5.6876    6.9159   -1.8485 O.2       1 <0>        -0.6710
     36 O2          5.4669    1.7271    2.5732 O.2       1 <0>        -0.4901
     37 O3          3.5174    1.4867    0.2568 O.2       1 <0>        -0.5902
     38 O4          7.6924    3.2783   -1.7917 O.2       1 <0>        -0.5833
     39 H1          9.5724   12.7539   -5.9752 H         1 <0>         0.1320
     40 H2         10.3789   11.9573   -3.7685 H         1 <0>         0.1324
     41 H3          7.4591   11.8615   -6.9197 H         1 <0>         0.1328
     42 H4          9.0800   10.2736   -2.5062 H         1 <0>         0.1324
     43 H5          6.1526   10.1776   -5.6655 H         1 <0>         0.1434
     44 H6         -0.6654    4.7712    3.4715 H         1 <0>         0.0405
     45 H7          0.4815    5.0305    4.7829 H         1 <0>         0.0421
     46 H8          1.7825    3.0631    4.1260 H         1 <0>         0.0362
     47 H9          0.0932    2.6028    4.3070 H         1 <0>         0.0439
     48 H10         0.8803    6.5563    2.8376 H         1 <0>         0.0350
     49 H11         2.2773    5.5493    3.2014 H         1 <0>         0.0428
     50 H12         1.1154    1.6244    2.2530 H         1 <0>         0.0663
     51 H13        -0.2661    2.6571    1.8937 H         1 <0>         0.0466
     52 H14         0.2228    5.1163    0.9794 H         1 <0>         0.0493
     53 H15         1.9056    5.5973    0.7762 H         1 <0>         0.0520
     54 H16         4.9736    3.4114   -4.6951 H         1 <0>         0.0915
     55 H17         5.8531    2.1713   -3.7729 H         1 <0>         0.0601
     56 H18         7.8805    7.8879   -5.6555 H         1 <0>         0.0688
     57 H19         6.1391    7.9685   -5.4921 H         1 <0>         0.0630
     58 H20         7.9647    3.0932   -4.3794 H         1 <0>         0.0807
     59 H21         7.0607    3.4497   -5.8523 H         1 <0>         0.0380
     60 H22         5.8545    5.7643   -5.8276 H         1 <0>         0.0484
     61 H23         7.5124    5.7838   -6.4252 H         1 <0>         0.0697
     62 H24         4.7698    4.4250   -2.5496 H         1 <0>         0.0843
     63 H25         1.4987    3.1531    0.2766 H         1 <0>         0.0831
     64 H26         6.8700    9.2469   -2.1701 H         1 <0>         0.0704
     65 H27         5.6795    9.2080   -3.4549 H         1 <0>         0.0718
     66 H28         8.4445    3.0306    2.5915 H         1 <0>         0.0606
     67 H29         6.9275    3.2007    3.4679 H         1 <0>         0.0458
     68 H30         9.0354    5.3625    3.0356 H         1 <0>         0.0375
     69 H31         7.5157    5.6329    3.8824 H         1 <0>         0.0392
     70 H32         7.7210    4.7221    0.9235 H         1 <0>         0.0606
     71 H33         6.2174    4.9831    1.8035 H         1 <0>         0.0579
     72 H34         9.7251    3.6753    4.7403 H         1 <0>         0.0571
     73 H35         8.1937    3.8977    5.5994 H         1 <0>         0.0503
     74 H36         7.0421    2.3587    0.4881 H         1 <0>         0.0993
     75 H37         9.1142    6.7979   -3.6499 H         1 <0>         0.3700
     76 H38         8.8693    7.9327   -2.3437 H         1 <0>         0.3660
     77 H39        10.0430    5.3371    6.4969 H         1 <0>         0.3465
     78 H40         9.1331    6.4373    5.4892 H         1 <0>         0.3446
     79 H41         3.4772    3.9862    2.2733 H         1 <0>         0.3148
     80 H42         4.8120    3.9176   -0.5391 H         1 <0>         0.3220
@<TRIPOS>BOND
     1    1    2 ar
     2    1    3 ar
     3    2    4 ar
     4    3    5 ar
     5    4    6 ar
     6    5    6 ar
     7    6   23 1
     8    7   22 1
     9    7   29 am
    10    7   35 2
    11    8    9 1
    12    8   28 1
    13    8   36 2
    14    9   33 am
    15    9   37 2
    16   10   20 1
    17   10   34 am
    18   10   38 2
    19   11   12 1
    20   11   13 1
    21   12   14 1
    22   13   15 1
    23   14   21 1
    24   15   21 1
    25   16   18 1
    26   16   20 1
    27   17   19 1
    28   17   22 1
    29   18   30 1
    30   19   30 1
    31   20   29 1
    32   21   33 1
    33   22   23 1
    34   22   31 1
    35   24   25 1
    36   24   26 1
    37   25   27 1
    38   26   28 1
    39   27   32 1
    40   28   34 1
    41   29   30 1
    42    1   39 1
    43    2   40 1
    44    3   41 1
    45    4   42 1
    46    5   43 1
    47   11   44 1
    48   11   45 1
    49   12   46 1
    50   12   47 1
    51   13   48 1
    52   13   49 1
    53   14   50 1
    54   14   51 1
    55   15   52 1
    56   15   53 1
    57   16   54 1
    58   16   55 1
    59   17   56 1
    60   17   57 1
    61   18   58 1
    62   18   59 1
    63   19   60 1
    64   19   61 1
    65   20   62 1
    66   21   63 1
    67   23   64 1
    68   23   65 1
    69   24   66 1
    70   24   67 1
    71   25   68 1
    72   25   69 1
    73   26   70 1
    74   26   71 1
    75   27   72 1
    76   27   73 1
    77   28   74 1
    78   31   75 1
    79   31   76 1
    80   32   77 1
    81   32   78 1
    82   33   79 1
    83   34   80 1
@<TRIPOS>MOLECULE
1a46_ligand_198
   80    83     0     0     0
SMALL
USER_CHARGES

mmff94s_NoEstat = 85.06
@<TRIPOS>ATOM
      1 C1         11.0121    9.2104   -7.9325 C.ar      1 <0>        -0.1300
      2 C2         11.5385    8.8832   -6.6829 C.ar      1 <0>        -0.1323
      3 C3          9.6345    9.1559   -8.1449 C.ar      1 <0>        -0.1309
      4 C4         10.6874    8.5015   -5.6458 C.ar      1 <0>        -0.1275
      5 C5          8.7834    8.7742   -7.1078 C.ar      1 <0>        -0.1272
      6 C6          9.3154    8.4495   -5.8650 C.ar      1 <0>        -0.0843
      7 C7          7.2411    6.0968   -3.6024 C.2       1 <0>         0.6709
      8 C8          5.2358    2.3798    1.5634 C.2       1 <0>         0.4867
      9 C9          5.3950    2.3039    3.0538 C.2       1 <0>         0.5883
     10 C10         6.5256    3.6321   -1.6689 C.2       1 <0>         0.6572
     11 C11         1.4721    3.3012    5.8846 C.3       1 <0>        -0.0802
     12 C12         2.2288    4.4874    5.2926 C.3       1 <0>        -0.0765
     13 C13         2.0779    1.9676    5.4553 C.3       1 <0>        -0.0774
     14 C14         3.7235    4.4153    5.6076 C.3       1 <0>        -0.0953
     15 C15         3.5730    1.9014    5.7703 C.3       1 <0>        -0.0906
     16 C16         5.2113    3.0694   -3.7284 C.3       1 <0>        -0.0871
     17 C17         7.6012    6.0599   -6.1012 C.3       1 <0>        -0.0716
     18 C18         6.3446    2.7580   -4.7039 C.3       1 <0>         0.1333
     19 C19         6.8355    4.7264   -6.0536 C.3       1 <0>         0.1246
     20 C20         5.7868    4.1659   -2.8575 C.3       1 <0>         0.0606
     21 C21         4.3575    3.0833    5.1852 C.3       1 <0>         0.1012
     22 C22         8.1773    6.5224   -4.7422 C.3       1 <0>         0.1554
     23 C23         8.4000    8.0389   -4.7494 C.3       1 <0>        -0.0356
     24 C24         8.0800    4.9598    0.7851 C.3       1 <0>        -0.0795
     25 C25         8.7880    6.0338    1.6192 C.3       1 <0>        -0.1203
     26 C26         6.9719    4.2276    1.5544 C.3       1 <0>        -0.0920
     27 C27         9.9095    6.7454    0.8629 C.3       1 <0>         0.1502
     28 C28         6.2906    3.1130    0.7514 C.3       1 <0>         0.0224
     29 N1          6.7674    4.7991   -3.7183 N.am      1 <0>        -0.3553
     30 N2          7.1280    4.0001   -4.8193 N.3       1 <0>        -0.4320
     31 N3          9.4643    5.8648   -4.4722 N.3       1 <0>        -0.9031
     32 N4         10.5470    7.7366    1.7233 N.3       1 <0>        -0.9068
     33 N5          4.4068    2.9859    3.7248 N.am      1 <0>        -0.5526
     34 N6          5.7762    3.5917   -0.5046 N.am      1 <0>        -0.5576
     35 O1          6.9567    6.8465   -2.6685 O.2       1 <0>        -0.6710
     36 O2          4.2060    1.9080    1.0985 O.2       1 <0>        -0.4901
     37 O3          6.3530    1.6912    3.4962 O.2       1 <0>        -0.5902
     38 O4          7.6924    3.2783   -1.7917 O.2       1 <0>        -0.5833
     39 H1         11.6747    9.5075   -8.7400 H         1 <0>         0.1320
     40 H2         12.6111    8.9257   -6.5176 H         1 <0>         0.1324
     41 H3          9.2248    9.4105   -9.1180 H         1 <0>         0.1328
     42 H4         11.1066    8.2484   -4.6756 H         1 <0>         0.1324
     43 H5          7.7115    8.7346   -7.2826 H         1 <0>         0.1434
     44 H6          1.4884    3.3709    6.9793 H         1 <0>         0.0405
     45 H7          0.4207    3.3445    5.5787 H         1 <0>         0.0421
     46 H8          2.0792    4.5112    4.2065 H         1 <0>         0.0362
     47 H9          1.8152    5.4216    5.6896 H         1 <0>         0.0439
     48 H10         1.5591    1.1476    5.9648 H         1 <0>         0.0350
     49 H11         1.9187    1.8232    4.3798 H         1 <0>         0.0428
     50 H12         4.2361    5.2502    5.1146 H         1 <0>         0.0663
     51 H13         3.8643    4.5494    6.6877 H         1 <0>         0.0466
     52 H14         3.7051    1.8909    6.8597 H         1 <0>         0.0493
     53 H15         3.9788    0.9553    5.3920 H         1 <0>         0.0520
     54 H16         4.3507    3.4578   -4.2870 H         1 <0>         0.0915
     55 H17         4.8908    2.1856   -3.1683 H         1 <0>         0.0601
     56 H18         8.4120    5.9885   -6.8390 H         1 <0>         0.0688
     57 H19         6.9149    6.8257   -6.4876 H         1 <0>         0.0630
     58 H20         6.9926    1.9855   -4.2725 H         1 <0>         0.0807
     59 H21         5.9735    2.3729   -5.6602 H         1 <0>         0.0380
     60 H22         5.7592    4.9288   -6.1435 H         1 <0>         0.0484
     61 H23         7.1185    4.1245   -6.9255 H         1 <0>         0.0697
     62 H24         5.0406    4.8864   -2.5107 H         1 <0>         0.0843
     63 H25         5.3980    3.0429    5.5243 H         1 <0>         0.0831
     64 H26         8.8151    8.3408   -3.7861 H         1 <0>         0.0704
     65 H27         7.4343    8.5386   -4.8464 H         1 <0>         0.0718
     66 H28         7.6494    5.4516   -0.0948 H         1 <0>         0.0606
     67 H29         8.8216    4.2418    0.4157 H         1 <0>         0.0458
     68 H30         8.0356    6.7709    1.9287 H         1 <0>         0.0375
     69 H31         9.1825    5.5824    2.5383 H         1 <0>         0.0392
     70 H32         6.2171    4.9575    1.8728 H         1 <0>         0.0606
     71 H33         7.3929    3.7874    2.4660 H         1 <0>         0.0579
     72 H34         9.5108    7.2416   -0.0285 H         1 <0>         0.0571
     73 H35        10.6706    6.0303    0.5375 H         1 <0>         0.0503
     74 H36         7.0421    2.3587    0.4881 H         1 <0>         0.0993
     75 H37         9.5764    4.9261   -4.7778 H         1 <0>         0.3700
     76 H38        10.0811    6.3037   -3.8286 H         1 <0>         0.3660
     77 H39        11.2163    8.3531    1.3147 H         1 <0>         0.3465
     78 H40        10.4498    7.6340    2.7108 H         1 <0>         0.3446
     79 H41         3.6788    3.4423    3.1832 H         1 <0>         0.3148
     80 H42         4.8120    3.9176   -0.5391 H         1 <0>         0.3220
@<TRIPOS>BOND
     1    1    2 ar
     2    1    3 ar
     3    2    4 ar
     4    3    5 ar
     5    4    6 ar
     6    5    6 ar
     7    6   23 1
     8    7   22 1
     9    7   29 am
    10    7   35 2
    11    8    9 1
    12    8   28 1
    13    8   36 2
    14    9   33 am
    15    9   37 2
    16   10   20 1
    17   10   34 am
    18   10   38 2
    19   11   12 1
    20   11   13 1
    21   12   14 1
    22   13   15 1
    23   14   21 1
    24   15   21 1
    25   16   18 1
    26   16   20 1
    27   17   19 1
    28   17   22 1
    29   18   30 1
    30   19   30 1
    31   20   29 1
    32   21   33 1
    33   22   23 1
    34   22   31 1
    35   24   25 1
    36   24   26 1
    37   25   27 1
    38   26   28 1
    39   27   32 1
    40   28   34 1
    41   29   30 1
    42    1   39 1
    43    2   40 1
    44    3   41 1
    45    4   42 1
    46    5   43 1
    47   11   44 1
    48   11   45 1
    49   12   46 1
    50   12   47 1
    51   13   48 1
    52   13   49 1
    53   14   50 1
    54   14   51 1
    55   15   52 1
    56   15   53 1
    57   16   54 1
    58   16   55 1
    59   17   56 1
    60   17   57 1
    61   18   58 1
    62   18   59 1
    63   19   60 1
    64   19   61 1
    65   20   62 1
    66   21   63 1
    67   23   64 1
    68   23   65 1
    69   24   66 1
    70   24   67 1
    71   25   68 1
    72   25   69 1
    73   26   70 1
    74   26   71 1
    75   27   72 1
    76   27   73 1
    77   28   74 1
    78   31   75 1
    79   31   76 1
    80   32   77 1
    81   32   78 1
    82   33   79 1
    83   34   80 1
@<TRIPOS>MOLECULE
1a46_ligand_199
   80    83     0     0     0
SMALL
USER_CHARGES

mmff94s_NoEstat = 85.06
@<TRIPOS>ATOM
      1 C1         -5.4583    1.6892    1.2611 C.ar      1 <0>        -0.1300
      2 C2         -4.0943    1.9775    1.3072 C.ar      1 <0>        -0.1323
      3 C3         -6.0294    1.2046    0.0844 C.ar      1 <0>        -0.1309
      4 C4         -3.3015    1.7813    0.1765 C.ar      1 <0>        -0.1275
      5 C5         -5.2365    1.0084   -1.0463 C.ar      1 <0>        -0.1272
      6 C6         -3.8777    1.2980   -0.9929 C.ar      1 <0>        -0.0843
      7 C7         -2.1058    2.1365   -4.3268 C.2       1 <0>         0.6709
      8 C8          2.7796    3.2097   -6.1637 C.2       1 <0>         0.4867
      9 C9          3.5094    4.2556   -5.3725 C.2       1 <0>         0.5883
     10 C10        -0.2772    3.6966   -6.4593 C.2       1 <0>         0.6572
     11 C11         8.1728    6.9800   -5.1595 C.3       1 <0>        -0.0802
     12 C12         8.1889    5.6333   -4.4420 C.3       1 <0>        -0.0765
     13 C13         6.7714    7.5831   -5.1940 C.3       1 <0>        -0.0774
     14 C14         7.1749    4.6619   -5.0439 C.3       1 <0>        -0.0953
     15 C15         5.7560    6.6142   -5.7974 C.3       1 <0>        -0.0906
     16 C16        -2.5724    4.0198   -7.4149 C.3       1 <0>        -0.0871
     17 C17        -4.4075    2.7624   -3.4988 C.3       1 <0>        -0.0716
     18 C18        -3.1842    4.9407   -6.3611 C.3       1 <0>         0.1333
     19 C19        -4.4794    3.6268   -4.7694 C.3       1 <0>         0.1246
     20 C20        -1.6533    3.1250   -6.6108 C.3       1 <0>         0.0606
     21 C21         5.7670    5.2673   -5.0662 C.3       1 <0>         0.1012
     22 C22        -2.9774    2.3470   -3.0806 C.3       1 <0>         0.1554
     23 C23        -3.0248    1.0870   -2.2092 C.3       1 <0>        -0.0356
     24 C24         1.4445    5.5921   -8.9731 C.3       1 <0>        -0.0795
     25 C25         1.6370    7.0835   -9.2718 C.3       1 <0>        -0.1203
     26 C26         2.1570    5.1335   -7.6933 C.3       1 <0>        -0.0920
     27 C27         0.9502    7.5360  -10.5601 C.3       1 <0>         0.1502
     28 C28         2.0196    3.6328   -7.4097 C.3       1 <0>         0.0224
     29 N1         -2.2587    3.1191   -5.2927 N.am      1 <0>        -0.3553
     30 N2         -3.1666    4.1772   -5.1014 N.3       1 <0>        -0.4320
     31 N3         -2.3282    3.4194   -2.3125 N.3       1 <0>        -0.9031
     32 N4          1.1922    8.9569  -10.7874 N.3       1 <0>        -0.9068
     33 N5          4.8390    4.3425   -5.7142 N.am      1 <0>        -0.5526
     34 N6          0.6426    3.2153   -7.3763 N.am      1 <0>        -0.5576
     35 O1         -1.3346    1.1836   -4.4382 O.2       1 <0>        -0.6710
     36 O2          2.7765    2.0764   -5.7001 O.2       1 <0>        -0.4901
     37 O3          2.8820    4.8776   -4.5310 O.2       1 <0>        -0.5902
     38 O4         -0.0579    4.5177   -5.5765 O.2       1 <0>        -0.5833
     39 H1         -6.0757    1.8420    2.1415 H         1 <0>         0.1320
     40 H2         -3.6498    2.3548    2.2235 H         1 <0>         0.1324
     41 H3         -7.0914    0.9803    0.0486 H         1 <0>         0.1328
     42 H4         -2.2397    2.0087    0.2217 H         1 <0>         0.1324
     43 H5         -5.6902    0.6306   -1.9588 H         1 <0>         0.1434
     44 H6          8.8599    7.6723   -4.6600 H         1 <0>         0.0405
     45 H7          8.5388    6.8503   -6.1855 H         1 <0>         0.0421
     46 H8          9.1933    5.1983   -4.4971 H         1 <0>         0.0362
     47 H9          7.9630    5.7828   -3.3790 H         1 <0>         0.0439
     48 H10         6.4618    7.8476   -4.1755 H         1 <0>         0.0350
     49 H11         6.7844    8.5121   -5.7752 H         1 <0>         0.0428
     50 H12         7.4853    4.3962   -6.0631 H         1 <0>         0.0663
     51 H13         7.1723    3.7288   -4.4675 H         1 <0>         0.0466
     52 H14         4.7534    7.0567   -5.7519 H         1 <0>         0.0493
     53 H15         5.9819    6.4653   -6.8616 H         1 <0>         0.0520
     54 H16        -3.3663    3.4156   -7.8711 H         1 <0>         0.0915
     55 H17        -2.0619    4.5764   -8.2068 H         1 <0>         0.0601
     56 H18        -4.8936    3.2931   -2.6688 H         1 <0>         0.0688
     57 H19        -5.0141    1.8630   -3.6718 H         1 <0>         0.0630
     58 H20        -2.5442    5.8221   -6.2340 H         1 <0>         0.0807
     59 H21        -4.1773    5.3004   -6.6521 H         1 <0>         0.0380
     60 H22        -4.8688    3.0160   -5.5957 H         1 <0>         0.0484
     61 H23        -5.2012    4.4361   -4.6064 H         1 <0>         0.0697
     62 H24        -1.5686    2.1110   -7.0119 H         1 <0>         0.0843
     63 H25         5.4036    5.3990   -4.0404 H         1 <0>         0.0831
     64 H26        -2.0076    0.8185   -1.9185 H         1 <0>         0.0704
     65 H27        -3.4109    0.2580   -2.8052 H         1 <0>         0.0718
     66 H28         0.3683    5.4079   -8.8774 H         1 <0>         0.0606
     67 H29         1.7918    5.0040   -9.8306 H         1 <0>         0.0458
     68 H30         1.2300    7.6523   -8.4256 H         1 <0>         0.0375
     69 H31         2.7093    7.3123   -9.3176 H         1 <0>         0.0392
     70 H32         1.7604    5.7005   -6.8419 H         1 <0>         0.0606
     71 H33         3.2243    5.3739   -7.7660 H         1 <0>         0.0579
     72 H34        -0.1287    7.3572  -10.4981 H         1 <0>         0.0571
     73 H35         1.3345    6.9786  -11.4193 H         1 <0>         0.0503
     74 H36         2.4714    3.0747   -8.2388 H         1 <0>         0.0993
     75 H37        -2.5295    4.3581   -2.5686 H         1 <0>         0.3700
     76 H38        -1.5729    3.1690   -1.7173 H         1 <0>         0.3660
     77 H39         0.7014    9.4044  -11.5317 H         1 <0>         0.3465
     78 H40         1.9755    9.3785  -10.3359 H         1 <0>         0.3446
     79 H41         5.1915    3.7372   -6.4495 H         1 <0>         0.3148
     80 H42         0.3285    2.5310   -8.0620 H         1 <0>         0.3220
@<TRIPOS>BOND
     1    1    2 ar
     2    1    3 ar
     3    2    4 ar
     4    3    5 ar
     5    4    6 ar
     6    5    6 ar
     7    6   23 1
     8    7   22 1
     9    7   29 am
    10    7   35 2
    11    8    9 1
    12    8   28 1
    13    8   36 2
    14    9   33 am
    15    9   37 2
    16   10   20 1
    17   10   34 am
    18   10   38 2
    19   11   12 1
    20   11   13 1
    21   12   14 1
    22   13   15 1
    23   14   21 1
    24   15   21 1
    25   16   18 1
    26   16   20 1
    27   17   19 1
    28   17   22 1
    29   18   30 1
    30   19   30 1
    31   20   29 1
    32   21   33 1
    33   22   23 1
    34   22   31 1
    35   24   25 1
    36   24   26 1
    37   25   27 1
    38   26   28 1
    39   27   32 1
    40   28   34 1
    41   29   30 1
    42    1   39 1
    43    2   40 1
    44    3   41 1
    45    4   42 1
    46    5   43 1
    47   11   44 1
    48   11   45 1
    49   12   46 1
    50   12   47 1
    51   13   48 1
    52   13   49 1
    53   14   50 1
    54   14   51 1
    55   15   52 1
    56   15   53 1
    57   16   54 1
    58   16   55 1
    59   17   56 1
    60   17   57 1
    61   18   58 1
    62   18   59 1
    63   19   60 1
    64   19   61 1
    65   20   62 1
    66   21   63 1
    67   23   64 1
    68   23   65 1
    69   24   66 1
    70   24   67 1
    71   25   68 1
    72   25   69 1
    73   26   70 1
    74   26   71 1
    75   27   72 1
    76   27   73 1
    77   28   74 1
    78   31   75 1
    79   31   76 1
    80   32   77 1
    81   32   78 1
    82   33   79 1
    83   34   80 1
@<TRIPOS>MOLECULE
1a46_ligand_200
   80    83     0     0     0
SMALL
USER_CHARGES

mmff94s_NoEstat = 85.10
@<TRIPOS>ATOM
      1 C1         -7.7455    8.1925  -11.7378 C.ar      1 <0>        -0.1300
      2 C2         -6.4538    8.7176  -11.7053 C.ar      1 <0>        -0.1323
      3 C3         -8.1013    7.1613  -10.8684 C.ar      1 <0>        -0.1309
      4 C4         -5.5176    8.2116  -10.8036 C.ar      1 <0>        -0.1275
      5 C5         -7.1651    6.6552   -9.9666 C.ar      1 <0>        -0.1272
      6 C6         -5.8794    7.1836   -9.9401 C.ar      1 <0>        -0.0843
      7 C7         -3.0518    4.9149   -8.5929 C.2       1 <0>         0.6709
      8 C8          2.7796    3.2097   -6.1637 C.2       1 <0>         0.4867
      9 C9          4.2587    3.4565   -6.1009 C.2       1 <0>         0.5883
     10 C10        -0.2306    3.3845   -8.4382 C.2       1 <0>         0.6572
     11 C11         9.0053    0.8731   -6.2061 C.3       1 <0>        -0.0802
     12 C12         8.4913    1.7799   -5.0913 C.3       1 <0>        -0.0765
     13 C13         8.4894    1.3135   -7.5731 C.3       1 <0>        -0.0774
     14 C14         6.9674    1.8856   -5.1085 C.3       1 <0>        -0.0953
     15 C15         6.9654    1.4180   -7.5931 C.3       1 <0>        -0.0906
     16 C16        -1.8342    1.4799   -8.7324 C.3       1 <0>        -0.0871
     17 C17        -5.0487    4.3542  -10.0327 C.3       1 <0>        -0.0716
     18 C18        -2.3033    1.7312  -10.1641 C.3       1 <0>         0.1333
     19 C19        -4.4074    2.9598  -10.1390 C.3       1 <0>         0.1246
     20 C20        -1.6152    2.8736   -8.1831 C.3       1 <0>         0.0606
     21 C21         6.4545    2.3390   -6.4798 C.3       1 <0>         0.1012
     22 C22        -4.0838    5.4758   -9.5814 C.3       1 <0>         0.1554
     23 C23        -4.8724    6.6393   -8.9701 C.3       1 <0>        -0.0356
     24 C24         1.5857    6.0302   -6.5865 C.3       1 <0>        -0.0795
     25 C25         1.6811    7.5259   -6.9095 C.3       1 <0>        -0.1203
     26 C26         2.1570    5.1335   -7.6933 C.3       1 <0>        -0.0920
     27 C27         1.0885    8.4192   -5.8200 C.3       1 <0>         0.1502
     28 C28         2.0196    3.6328   -7.4097 C.3       1 <0>         0.0224
     29 N1         -2.5211    3.6904   -8.9681 N.am      1 <0>        -0.3553
     30 N2         -2.9489    3.0553  -10.1488 N.3       1 <0>        -0.4320
     31 N3         -3.3108    5.9870  -10.7228 N.3       1 <0>        -0.9031
     32 N4          1.8018    8.2205   -4.5627 N.3       1 <0>        -0.9068
     33 N5          4.9930    2.3577   -6.4821 N.am      1 <0>        -0.5526
     34 N6          0.6426    3.2153   -7.3763 N.am      1 <0>        -0.5576
     35 O1         -2.7244    5.5164   -7.5701 O.2       1 <0>        -0.6710
     36 O2          2.2586    2.7495   -5.1557 O.2       1 <0>        -0.4901
     37 O3          4.6403    4.5493   -5.7150 O.2       1 <0>        -0.5902
     38 O4          0.0350    3.8958   -9.5198 O.2       1 <0>        -0.5833
     39 H1         -8.4745    8.5865  -12.4399 H         1 <0>         0.1320
     40 H2         -6.1769    9.5206  -12.3823 H         1 <0>         0.1324
     41 H3         -9.1071    6.7523  -10.8939 H         1 <0>         0.1328
     42 H4         -4.5135    8.6269  -10.7854 H         1 <0>         0.1324
     43 H5         -7.4512    5.8517   -9.2932 H         1 <0>         0.1434
     44 H6         10.1011    0.8751   -6.2073 H         1 <0>         0.0405
     45 H7          8.6872   -0.1586   -6.0118 H         1 <0>         0.0421
     46 H8          8.8230    1.3947   -4.1205 H         1 <0>         0.0362
     47 H9          8.9268    2.7803   -5.2041 H         1 <0>         0.0439
     48 H10         8.9247    2.2864   -7.8324 H         1 <0>         0.0350
     49 H11         8.8198    0.6018   -8.3382 H         1 <0>         0.0428
     50 H12         6.5316    0.9120   -4.8479 H         1 <0>         0.0663
     51 H13         6.6386    2.5895   -4.3342 H         1 <0>         0.0466
     52 H14         6.6353    1.7924   -8.5698 H         1 <0>         0.0493
     53 H15         6.5298    0.4163   -7.4811 H         1 <0>         0.0520
     54 H16        -2.6369    0.9859   -8.1710 H         1 <0>         0.0915
     55 H17        -0.9427    0.8466   -8.6926 H         1 <0>         0.0601
     56 H18        -5.4989    4.6229  -10.9981 H         1 <0>         0.0688
     57 H19        -5.8853    4.2840   -9.3243 H         1 <0>         0.0630
     58 H20        -1.4316    1.7851  -10.8273 H         1 <0>         0.0807
     59 H21        -2.9449    0.9252  -10.5369 H         1 <0>         0.0380
     60 H22        -4.7542    2.3419   -9.2992 H         1 <0>         0.0484
     61 H23        -4.7632    2.4757  -11.0564 H         1 <0>         0.0697
     62 H24        -1.8289    2.9613   -7.1141 H         1 <0>         0.0843
     63 H25         6.7753    3.3690   -6.6739 H         1 <0>         0.0831
     64 H26        -4.1735    7.4215   -8.6684 H         1 <0>         0.0704
     65 H27        -5.3683    6.2928   -8.0614 H         1 <0>         0.0718
     66 H28         2.1358    5.8550   -5.6547 H         1 <0>         0.0606
     67 H29         0.5392    5.7688   -6.3906 H         1 <0>         0.0458
     68 H30         2.7419    7.7748   -7.0444 H         1 <0>         0.0375
     69 H31         1.1870    7.7255   -7.8687 H         1 <0>         0.0392
     70 H32         3.2164    5.3787   -7.8393 H         1 <0>         0.0606
     71 H33         1.6466    5.3535   -8.6384 H         1 <0>         0.0579
     72 H34         0.0275    8.1885   -5.6755 H         1 <0>         0.0571
     73 H35         1.1682    9.4739   -6.0992 H         1 <0>         0.0503
     74 H36         2.4714    3.0747   -8.2388 H         1 <0>         0.0993
     75 H37        -3.0417    5.3386  -11.4260 H         1 <0>         0.3700
     76 H38        -2.9200    6.8973  -10.6453 H         1 <0>         0.3660
     77 H39         1.4387    8.6562   -3.7421 H         1 <0>         0.3465
     78 H40         2.7216    7.8360   -4.5996 H         1 <0>         0.3446
     79 H41         4.4975    1.5221   -6.7784 H         1 <0>         0.3148
     80 H42         0.2924    2.7728   -6.5286 H         1 <0>         0.3220
@<TRIPOS>BOND
     1    1    2 ar
     2    1    3 ar
     3    2    4 ar
     4    3    5 ar
     5    4    6 ar
     6    5    6 ar
     7    6   23 1
     8    7   22 1
     9    7   29 am
    10    7   35 2
    11    8    9 1
    12    8   28 1
    13    8   36 2
    14    9   33 am
    15    9   37 2
    16   10   20 1
    17   10   34 am
    18   10   38 2
    19   11   12 1
    20   11   13 1
    21   12   14 1
    22   13   15 1
    23   14   21 1
    24   15   21 1
    25   16   18 1
    26   16   20 1
    27   17   19 1
    28   17   22 1
    29   18   30 1
    30   19   30 1
    31   20   29 1
    32   21   33 1
    33   22   23 1
    34   22   31 1
    35   24   25 1
    36   24   26 1
    37   25   27 1
    38   26   28 1
    39   27   32 1
    40   28   34 1
    41   29   30 1
    42    1   39 1
    43    2   40 1
    44    3   41 1
    45    4   42 1
    46    5   43 1
    47   11   44 1
    48   11   45 1
    49   12   46 1
    50   12   47 1
    51   13   48 1
    52   13   49 1
    53   14   50 1
    54   14   51 1
    55   15   52 1
    56   15   53 1
    57   16   54 1
    58   16   55 1
    59   17   56 1
    60   17   57 1
    61   18   58 1
    62   18   59 1
    63   19   60 1
    64   19   61 1
    65   20   62 1
    66   21   63 1
    67   23   64 1
    68   23   65 1
    69   24   66 1
    70   24   67 1
    71   25   68 1
    72   25   69 1
    73   26   70 1
    74   26   71 1
    75   27   72 1
    76   27   73 1
    77   28   74 1
    78   31   75 1
    79   31   76 1
    80   32   77 1
    81   32   78 1
    82   33   79 1
    83   34   80 1
@<TRIPOS>MOLECULE
1a46_ligand_201
   80    83     0     0     0
SMALL
USER_CHARGES

mmff94s_NoEstat = 85.14
@<TRIPOS>ATOM
      1 C1         -6.8775    5.0901  -14.7309 C.ar      1 <0>        -0.1300
      2 C2         -5.5917    5.6294  -14.7709 C.ar      1 <0>        -0.1323
      3 C3         -7.3842    4.5832  -13.5342 C.ar      1 <0>        -0.1309
      4 C4         -4.8126    5.6616  -13.6144 C.ar      1 <0>        -0.1275
      5 C5         -6.6051    4.6154  -12.3777 C.ar      1 <0>        -0.1272
      6 C6         -5.3244    5.1544  -12.4253 C.ar      1 <0>        -0.0843
      7 C7         -2.7863    3.9453   -9.7694 C.2       1 <0>         0.6709
      8 C8          2.7796    3.2097   -6.1637 C.2       1 <0>         0.4867
      9 C9          4.2189    2.8058   -6.2975 C.2       1 <0>         0.5883
     10 C10        -0.0591    2.8141   -8.5012 C.2       1 <0>         0.6572
     11 C11         7.3463   -1.3422   -7.7903 C.3       1 <0>        -0.0802
     12 C12         7.3419   -0.6548   -6.4279 C.3       1 <0>        -0.0765
     13 C13         7.0008   -0.3686   -8.9135 C.3       1 <0>        -0.0774
     14 C14         6.0188    0.0615   -6.1623 C.3       1 <0>        -0.0953
     15 C15         5.6770    0.3474   -8.6510 C.3       1 <0>        -0.0906
     16 C16        -1.6498    0.9246   -8.0710 C.3       1 <0>        -0.0871
     17 C17        -4.5618    2.6685  -11.0314 C.3       1 <0>        -0.0716
     18 C18        -1.8952    0.4385   -9.4981 C.3       1 <0>         0.1333
     19 C19        -3.9477    1.4257  -10.3641 C.3       1 <0>         0.1246
     20 C20        -1.4789    2.4202   -8.2321 C.3       1 <0>         0.0606
     21 C21         5.6814    1.0464   -7.2871 C.3       1 <0>         0.1012
     22 C22        -3.6459    3.9150  -11.0410 C.3       1 <0>         0.1554
     23 C23        -4.4863    5.1891  -11.1812 C.3       1 <0>        -0.0356
     24 C24         3.6080    5.6033   -7.8654 C.3       1 <0>        -0.0795
     25 C25         3.7321    7.1143   -8.0937 C.3       1 <0>        -0.1203
     26 C26         2.1570    5.1335   -7.6933 C.3       1 <0>        -0.0920
     27 C27         5.1782    7.5875   -8.2387 C.3       1 <0>         0.1502
     28 C28         2.0196    3.6328   -7.4097 C.3       1 <0>         0.0224
     29 N1         -2.2374    2.7178   -9.4321 N.am      1 <0>        -0.3553
     30 N2         -2.5018    1.5760  -10.2111 N.3       1 <0>        -0.4320
     31 N3         -2.6997    3.8562  -12.1647 N.3       1 <0>        -0.9031
     32 N4          5.2178    9.0330   -8.4337 N.3       1 <0>        -0.9068
     33 N5          4.3773    1.6573   -7.0377 N.am      1 <0>        -0.5526
     34 N6          0.6426    3.2153   -7.3763 N.am      1 <0>        -0.5576
     35 O1         -2.5986    4.9773   -9.1254 O.2       1 <0>        -0.6710
     36 O2          2.3266    3.2509   -5.0269 O.2       1 <0>        -0.4901
     37 O3          5.0600    3.4942   -5.7431 O.2       1 <0>        -0.5902
     38 O4          0.3766    2.7593   -9.6452 O.2       1 <0>        -0.5833
     39 H1         -7.4841    5.0650  -15.6314 H         1 <0>         0.1320
     40 H2         -5.1973    6.0241  -15.7027 H         1 <0>         0.1324
     41 H3         -8.3853    4.1632  -13.5032 H         1 <0>         0.1328
     42 H4         -3.8120    6.0837  -13.6551 H         1 <0>         0.1324
     43 H5         -7.0082    4.2181  -11.4499 H         1 <0>         0.1434
     44 H6          8.3310   -1.7855   -7.9765 H         1 <0>         0.0405
     45 H7          6.6205   -2.1648   -7.7853 H         1 <0>         0.0421
     46 H8          7.5244   -1.3952   -5.6409 H         1 <0>         0.0362
     47 H9          8.1638    0.0702   -6.3817 H         1 <0>         0.0439
     48 H10         7.8025    0.3733   -9.0141 H         1 <0>         0.0350
     49 H11         6.9447   -0.9091   -9.8652 H         1 <0>         0.0428
     50 H12         5.2165   -0.6812   -6.0606 H         1 <0>         0.0663
     51 H13         6.0735    0.5919   -5.2038 H         1 <0>         0.0466
     52 H14         5.4908    1.0793   -9.4463 H         1 <0>         0.0493
     53 H15         4.8544   -0.3784   -8.6980 H         1 <0>         0.0520
     54 H16        -2.5391    0.7200   -7.4620 H         1 <0>         0.0915
     55 H17        -0.7905    0.4314   -7.6064 H         1 <0>         0.0601
     56 H18        -4.8571    2.4214  -12.0603 H         1 <0>         0.0688
     57 H19        -5.4956    2.9043  -10.5031 H         1 <0>         0.0630
     58 H20        -0.9338    0.2117   -9.9745 H         1 <0>         0.0807
     59 H21        -2.4949   -0.4779   -9.5259 H         1 <0>         0.0380
     60 H22        -4.4307    1.2677   -9.3899 H         1 <0>         0.0484
     61 H23        -4.1761    0.5456  -10.9773 H         1 <0>         0.0697
     62 H24        -1.8462    2.9971   -7.3786 H         1 <0>         0.0843
     63 H25         6.4089    1.8663   -7.2928 H         1 <0>         0.0831
     64 H26        -3.8200    6.0535  -11.1955 H         1 <0>         0.0704
     65 H27        -5.1199    5.2949  -10.2986 H         1 <0>         0.0718
     66 H28         4.0550    5.0981   -8.7294 H         1 <0>         0.0606
     67 H29         4.2035    5.3200   -6.9896 H         1 <0>         0.0458
     68 H30         3.1762    7.3642   -9.0068 H         1 <0>         0.0375
     69 H31         3.2423    7.6502   -7.2709 H         1 <0>         0.0392
     70 H32         1.5916    5.3838   -8.5996 H         1 <0>         0.0606
     71 H33         1.6928    5.6841   -6.8667 H         1 <0>         0.0579
     72 H34         5.6557    7.0931   -9.0916 H         1 <0>         0.0571
     73 H35         5.7562    7.3441   -7.3424 H         1 <0>         0.0503
     74 H36         2.4714    3.0747   -8.2388 H         1 <0>         0.0993
     75 H37        -2.3461    2.9648  -12.4248 H         1 <0>         0.3700
     76 H38        -2.3015    4.7109  -12.4784 H         1 <0>         0.3660
     77 H39         6.0938    9.4532   -8.6597 H         1 <0>         0.3465
     78 H40         4.4297    9.5689   -8.1390 H         1 <0>         0.3446
     79 H41         3.5512    1.2141   -7.4284 H         1 <0>         0.3148
     80 H42         0.1596    3.2148   -6.4798 H         1 <0>         0.3220
@<TRIPOS>BOND
     1    1    2 ar
     2    1    3 ar
     3    2    4 ar
     4    3    5 ar
     5    4    6 ar
     6    5    6 ar
     7    6   23 1
     8    7   22 1
     9    7   29 am
    10    7   35 2
    11    8    9 1
    12    8   28 1
    13    8   36 2
    14    9   33 am
    15    9   37 2
    16   10   20 1
    17   10   34 am
    18   10   38 2
    19   11   12 1
    20   11   13 1
    21   12   14 1
    22   13   15 1
    23   14   21 1
    24   15   21 1
    25   16   18 1
    26   16   20 1
    27   17   19 1
    28   17   22 1
    29   18   30 1
    30   19   30 1
    31   20   29 1
    32   21   33 1
    33   22   23 1
    34   22   31 1
    35   24   25 1
    36   24   26 1
    37   25   27 1
    38   26   28 1
    39   27   32 1
    40   28   34 1
    41   29   30 1
    42    1   39 1
    43    2   40 1
    44    3   41 1
    45    4   42 1
    46    5   43 1
    47   11   44 1
    48   11   45 1
    49   12   46 1
    50   12   47 1
    51   13   48 1
    52   13   49 1
    53   14   50 1
    54   14   51 1
    55   15   52 1
    56   15   53 1
    57   16   54 1
    58   16   55 1
    59   17   56 1
    60   17   57 1
    61   18   58 1
    62   18   59 1
    63   19   60 1
    64   19   61 1
    65   20   62 1
    66   21   63 1
    67   23   64 1
    68   23   65 1
    69   24   66 1
    70   24   67 1
    71   25   68 1
    72   25   69 1
    73   26   70 1
    74   26   71 1
    75   27   72 1
    76   27   73 1
    77   28   74 1
    78   31   75 1
    79   31   76 1
    80   32   77 1
    81   32   78 1
    82   33   79 1
    83   34   80 1
@<TRIPOS>MOLECULE
1a46_ligand_202
   80    83     0     0     0
SMALL
USER_CHARGES

mmff94s_NoEstat = 85.14
@<TRIPOS>ATOM
      1 C1         -6.8775    5.0901  -14.7309 C.ar      1 <0>        -0.1300
      2 C2         -5.5917    5.6294  -14.7709 C.ar      1 <0>        -0.1323
      3 C3         -7.3842    4.5832  -13.5342 C.ar      1 <0>        -0.1309
      4 C4         -4.8126    5.6616  -13.6144 C.ar      1 <0>        -0.1275
      5 C5         -6.6051    4.6154  -12.3777 C.ar      1 <0>        -0.1272
      6 C6         -5.3244    5.1544  -12.4253 C.ar      1 <0>        -0.0843
      7 C7         -2.7863    3.9453   -9.7694 C.2       1 <0>         0.6709
      8 C8          2.7796    3.2097   -6.1637 C.2       1 <0>         0.4867
      9 C9          3.9990    3.9872   -5.7623 C.2       1 <0>         0.5883
     10 C10        -0.0591    2.8141   -8.5012 C.2       1 <0>         0.6572
     11 C11         9.2420    4.5724   -6.9384 C.3       1 <0>        -0.0802
     12 C12         8.6541    4.1943   -5.5818 C.3       1 <0>        -0.0765
     13 C13         8.3075    5.4904   -7.7211 C.3       1 <0>        -0.0774
     14 C14         7.2591    3.5875   -5.7215 C.3       1 <0>        -0.0953
     15 C15         6.9123    4.8846   -7.8639 C.3       1 <0>        -0.0906
     16 C16        -1.6498    0.9246   -8.0710 C.3       1 <0>        -0.0871
     17 C17        -4.5618    2.6685  -11.0314 C.3       1 <0>        -0.0716
     18 C18        -1.8952    0.4385   -9.4981 C.3       1 <0>         0.1333
     19 C19        -3.9477    1.4257  -10.3641 C.3       1 <0>         0.1246
     20 C20        -1.4789    2.4202   -8.2321 C.3       1 <0>         0.0606
     21 C21         6.3208    4.5176   -6.4984 C.3       1 <0>         0.1012
     22 C22        -3.6459    3.9150  -11.0410 C.3       1 <0>         0.1554
     23 C23        -4.4863    5.1891  -11.1812 C.3       1 <0>        -0.0356
     24 C24         1.5857    6.0302   -6.5865 C.3       1 <0>        -0.0795
     25 C25         1.6811    7.5259   -6.9095 C.3       1 <0>        -0.1203
     26 C26         2.1570    5.1335   -7.6933 C.3       1 <0>        -0.0920
     27 C27         3.1174    8.0140   -7.0965 C.3       1 <0>         0.1502
     28 C28         2.0196    3.6328   -7.4097 C.3       1 <0>         0.0224
     29 N1         -2.2374    2.7178   -9.4321 N.am      1 <0>        -0.3553
     30 N2         -2.5018    1.5760  -10.2111 N.3       1 <0>        -0.4320
     31 N3         -2.6997    3.8562  -12.1647 N.3       1 <0>        -0.9031
     32 N4          3.1298    9.4451   -7.3814 N.3       1 <0>        -0.9068
     33 N5          5.0202    3.8750   -6.6769 N.am      1 <0>        -0.5526
     34 N6          0.6426    3.2153   -7.3763 N.am      1 <0>        -0.5576
     35 O1         -2.5986    4.9773   -9.1254 O.2       1 <0>        -0.6710
     36 O2          2.4233    2.3196   -5.4021 O.2       1 <0>        -0.4901
     37 O3          3.9681    4.5934   -4.7038 O.2       1 <0>        -0.5902
     38 O4          0.3766    2.7593   -9.6452 O.2       1 <0>        -0.5833
     39 H1         -7.4841    5.0650  -15.6314 H         1 <0>         0.1320
     40 H2         -5.1973    6.0241  -15.7027 H         1 <0>         0.1324
     41 H3         -8.3853    4.1632  -13.5032 H         1 <0>         0.1328
     42 H4         -3.8120    6.0837  -13.6551 H         1 <0>         0.1324
     43 H5         -7.0082    4.2181  -11.4499 H         1 <0>         0.1434
     44 H6         10.2099    5.0662   -6.7961 H         1 <0>         0.0405
     45 H7          9.4296    3.6617   -7.5204 H         1 <0>         0.0421
     46 H8          9.3172    3.4817   -5.0785 H         1 <0>         0.0362
     47 H9          8.6009    5.0861   -4.9452 H         1 <0>         0.0439
     48 H10         8.2337    6.4586   -7.2108 H         1 <0>         0.0350
     49 H11         8.7282    5.6842   -8.7143 H         1 <0>         0.0428
     50 H12         7.3330    2.6178   -6.2314 H         1 <0>         0.0663
     51 H13         6.8451    3.3837   -4.7265 H         1 <0>         0.0466
     52 H14         6.2538    5.5949   -8.3784 H         1 <0>         0.0493
     53 H15         6.9657    3.9924   -8.5017 H         1 <0>         0.0520
     54 H16        -2.5391    0.7200   -7.4620 H         1 <0>         0.0915
     55 H17        -0.7905    0.4314   -7.6064 H         1 <0>         0.0601
     56 H18        -4.8571    2.4214  -12.0603 H         1 <0>         0.0688
     57 H19        -5.4956    2.9043  -10.5031 H         1 <0>         0.0630
     58 H20        -0.9338    0.2117   -9.9745 H         1 <0>         0.0807
     59 H21        -2.4949   -0.4779   -9.5259 H         1 <0>         0.0380
     60 H22        -4.4307    1.2677   -9.3899 H         1 <0>         0.0484
     61 H23        -4.1761    0.5456  -10.9773 H         1 <0>         0.0697
     62 H24        -1.8462    2.9971   -7.3786 H         1 <0>         0.0843
     63 H25         6.1364    5.4284   -5.9171 H         1 <0>         0.0831
     64 H26        -3.8200    6.0535  -11.1955 H         1 <0>         0.0704
     65 H27        -5.1199    5.2949  -10.2986 H         1 <0>         0.0718
     66 H28         2.1358    5.8550   -5.6547 H         1 <0>         0.0606
     67 H29         0.5392    5.7688   -6.3906 H         1 <0>         0.0458
     68 H30         1.1137    7.7088   -7.8313 H         1 <0>         0.0375
     69 H31         1.1884    8.1036   -6.1172 H         1 <0>         0.0392
     70 H32         3.2164    5.3787   -7.8393 H         1 <0>         0.0606
     71 H33         1.6466    5.3535   -8.6384 H         1 <0>         0.0579
     72 H34         3.5969    7.4758   -7.9212 H         1 <0>         0.0571
     73 H35         3.7066    7.8370   -6.1920 H         1 <0>         0.0503
     74 H36         2.4714    3.0747   -8.2388 H         1 <0>         0.0993
     75 H37        -2.3461    2.9648  -12.4248 H         1 <0>         0.3700
     76 H38        -2.3015    4.7109  -12.4784 H         1 <0>         0.3660
     77 H39         3.9964    9.8653   -7.6409 H         1 <0>         0.3465
     78 H40         2.3346    9.9846   -7.1136 H         1 <0>         0.3446
     79 H41         4.8635    3.3209   -7.5135 H         1 <0>         0.3148
     80 H42         0.1596    3.2148   -6.4798 H         1 <0>         0.3220
@<TRIPOS>BOND
     1    1    2 ar
     2    1    3 ar
     3    2    4 ar
     4    3    5 ar
     5    4    6 ar
     6    5    6 ar
     7    6   23 1
     8    7   22 1
     9    7   29 am
    10    7   35 2
    11    8    9 1
    12    8   28 1
    13    8   36 2
    14    9   33 am
    15    9   37 2
    16   10   20 1
    17   10   34 am
    18   10   38 2
    19   11   12 1
    20   11   13 1
    21   12   14 1
    22   13   15 1
    23   14   21 1
    24   15   21 1
    25   16   18 1
    26   16   20 1
    27   17   19 1
    28   17   22 1
    29   18   30 1
    30   19   30 1
    31   20   29 1
    32   21   33 1
    33   22   23 1
    34   22   31 1
    35   24   25 1
    36   24   26 1
    37   25   27 1
    38   26   28 1
    39   27   32 1
    40   28   34 1
    41   29   30 1
    42    1   39 1
    43    2   40 1
    44    3   41 1
    45    4   42 1
    46    5   43 1
    47   11   44 1
    48   11   45 1
    49   12   46 1
    50   12   47 1
    51   13   48 1
    52   13   49 1
    53   14   50 1
    54   14   51 1
    55   15   52 1
    56   15   53 1
    57   16   54 1
    58   16   55 1
    59   17   56 1
    60   17   57 1
    61   18   58 1
    62   18   59 1
    63   19   60 1
    64   19   61 1
    65   20   62 1
    66   21   63 1
    67   23   64 1
    68   23   65 1
    69   24   66 1
    70   24   67 1
    71   25   68 1
    72   25   69 1
    73   26   70 1
    74   26   71 1
    75   27   72 1
    76   27   73 1
    77   28   74 1
    78   31   75 1
    79   31   76 1
    80   32   77 1
    81   32   78 1
    82   33   79 1
    83   34   80 1
@<TRIPOS>MOLECULE
1a46_ligand_203
   80    83     0     0     0
SMALL
USER_CHARGES

mmff94s_NoEstat = 85.15
@<TRIPOS>ATOM
      1 C1          9.3427    1.2226  -10.2936 C.ar      1 <0>        -0.1300
      2 C2          9.9666    0.8172   -9.1138 C.ar      1 <0>        -0.1323
      3 C3          8.4336    2.2805  -10.2739 C.ar      1 <0>        -0.1309
      4 C4          9.6814    1.4695   -7.9143 C.ar      1 <0>        -0.1275
      5 C5          8.1485    2.9328   -9.0744 C.ar      1 <0>        -0.1272
      6 C6          8.7742    2.5231   -7.9024 C.ar      1 <0>        -0.0843
      7 C7          6.9710    3.2795   -4.5657 C.2       1 <0>         0.6709
      8 C8          5.2358    2.3798    1.5634 C.2       1 <0>         0.4867
      9 C9          5.6457    1.7076    2.8411 C.2       1 <0>         0.5883
     10 C10         5.7098    2.8119   -1.6475 C.2       1 <0>         0.6572
     11 C11         2.5045   -1.4855    4.9229 C.3       1 <0>        -0.0802
     12 C12         2.2294    0.0020    5.1270 C.3       1 <0>        -0.0765
     13 C13         3.7382   -1.7230    4.0561 C.3       1 <0>        -0.0774
     14 C14         3.4569    0.7312    5.6748 C.3       1 <0>        -0.0953
     15 C15         4.9623   -0.9899    4.6068 C.3       1 <0>        -0.0906
     16 C16         3.6624    3.2324   -3.0320 C.3       1 <0>        -0.0871
     17 C17         6.0388    2.5547   -6.7975 C.3       1 <0>        -0.0716
     18 C18         3.6514    1.9752   -3.8994 C.3       1 <0>         0.1333
     19 C19         4.6996    2.4463   -6.0480 C.3       1 <0>         0.1246
     20 C20         5.1372    3.5153   -2.8394 C.3       1 <0>         0.0606
     21 C21         4.7122    0.5090    4.8206 C.3       1 <0>         0.1012
     22 C22         7.2891    2.5653   -5.8869 C.3       1 <0>         0.1554
     23 C23         8.4675    3.2247   -6.6121 C.3       1 <0>        -0.0356
     24 C24         6.0158    5.3379    2.0114 C.3       1 <0>        -0.0795
     25 C25         6.7209    6.4716    2.7653 C.3       1 <0>        -0.1203
     26 C26         6.9719    4.2276    1.5544 C.3       1 <0>        -0.0920
     27 C27         5.7742    7.5909    3.1979 C.3       1 <0>         0.1502
     28 C28         6.2906    3.1130    0.7514 C.3       1 <0>         0.0224
     29 N1          5.7488    2.9259   -4.0152 N.am      1 <0>        -0.3553
     30 N2          4.9069    2.0073   -4.6693 N.3       1 <0>        -0.4320
     31 N3          7.6768    1.1953   -5.5201 N.3       1 <0>        -0.9031
     32 N4          6.5168    8.6391    3.8900 N.3       1 <0>        -0.9068
     33 N5          4.5746    1.1891    3.5309 N.am      1 <0>        -0.5526
     34 N6          5.7762    3.5917   -0.5046 N.am      1 <0>        -0.5576
     35 O1          7.7474    4.0812   -4.0464 O.2       1 <0>        -0.6710
     36 O2          4.0412    2.3628    1.2952 O.2       1 <0>        -0.4901
     37 O3          6.8302    1.7091    3.1337 O.2       1 <0>        -0.5902
     38 O4          6.0670    1.6440   -1.7490 O.2       1 <0>        -0.5833
     39 H1          9.5646    0.7147  -11.2275 H         1 <0>         0.1320
     40 H2         10.6743   -0.0064   -9.1292 H         1 <0>         0.1324
     41 H3          7.9478    2.5960  -11.1926 H         1 <0>         0.1328
     42 H4         10.1723    1.1467   -7.0000 H         1 <0>         0.1324
     43 H5          7.4388    3.7559   -9.0687 H         1 <0>         0.1434
     44 H6          2.6499   -1.9644    5.8991 H         1 <0>         0.0405
     45 H7          1.6322   -1.9621    4.4616 H         1 <0>         0.0421
     46 H8          1.9253    0.4517    4.1741 H         1 <0>         0.0362
     47 H9          1.3889    0.1282    5.8190 H         1 <0>         0.0439
     48 H10         3.9478   -2.7974    4.0021 H         1 <0>         0.0350
     49 H11         3.5352   -1.3881    3.0317 H         1 <0>         0.0428
     50 H12         3.2358    1.8030    5.7487 H         1 <0>         0.0663
     51 H13         3.6533    0.3764    6.6946 H         1 <0>         0.0466
     52 H14         5.2453   -1.4437    5.5651 H         1 <0>         0.0493
     53 H15         5.8075   -1.1373    3.9236 H         1 <0>         0.0520
     54 H16         3.1996    4.0578   -3.5869 H         1 <0>         0.0915
     55 H17         3.1150    3.0948   -2.0945 H         1 <0>         0.0601
     56 H18         6.1186    1.7328   -7.5220 H         1 <0>         0.0688
     57 H19         6.0134    3.4760   -7.3953 H         1 <0>         0.0630
     58 H20         3.6705    1.0888   -3.2538 H         1 <0>         0.0807
     59 H21         2.7495    1.9066   -4.5175 H         1 <0>         0.0380
     60 H22         4.1937    3.4213   -6.0771 H         1 <0>         0.0484
     61 H23         4.0529    1.7380   -6.5798 H         1 <0>         0.0697
     62 H24         5.3721    4.5807   -2.7630 H         1 <0>         0.0843
     63 H25         5.5797    0.9644    5.3094 H         1 <0>         0.0831
     64 H26         9.3395    3.2124   -5.9558 H         1 <0>         0.0704
     65 H27         8.2279    4.2735   -6.7972 H         1 <0>         0.0718
     66 H28         5.2579    4.9142    2.6804 H         1 <0>         0.0606
     67 H29         5.4809    5.7546    1.1500 H         1 <0>         0.0458
     68 H30         7.2000    6.0392    3.6534 H         1 <0>         0.0375
     69 H31         7.5258    6.8807    2.1417 H         1 <0>         0.0392
     70 H32         7.4599    3.7926    2.4354 H         1 <0>         0.0606
     71 H33         7.7645    4.6634    0.9347 H         1 <0>         0.0579
     72 H34         4.9986    7.1962    3.8630 H         1 <0>         0.0571
     73 H35         5.2784    8.0349    2.3297 H         1 <0>         0.0503
     74 H36         7.0421    2.3587    0.4881 H         1 <0>         0.0993
     75 H37         6.9507    0.5323   -5.3773 H         1 <0>         0.3700
     76 H38         8.6161    1.0420   -5.2343 H         1 <0>         0.3660
     77 H39         5.9996    9.3711    4.3277 H         1 <0>         0.3465
     78 H40         7.4997    8.7018    3.7315 H         1 <0>         0.3446
     79 H41         3.6470    1.2820    3.1279 H         1 <0>         0.3148
     80 H42         5.4441    4.5531   -0.5557 H         1 <0>         0.3220
@<TRIPOS>BOND
     1    1    2 ar
     2    1    3 ar
     3    2    4 ar
     4    3    5 ar
     5    4    6 ar
     6    5    6 ar
     7    6   23 1
     8    7   22 1
     9    7   29 am
    10    7   35 2
    11    8    9 1
    12    8   28 1
    13    8   36 2
    14    9   33 am
    15    9   37 2
    16   10   20 1
    17   10   34 am
    18   10   38 2
    19   11   12 1
    20   11   13 1
    21   12   14 1
    22   13   15 1
    23   14   21 1
    24   15   21 1
    25   16   18 1
    26   16   20 1
    27   17   19 1
    28   17   22 1
    29   18   30 1
    30   19   30 1
    31   20   29 1
    32   21   33 1
    33   22   23 1
    34   22   31 1
    35   24   25 1
    36   24   26 1
    37   25   27 1
    38   26   28 1
    39   27   32 1
    40   28   34 1
    41   29   30 1
    42    1   39 1
    43    2   40 1
    44    3   41 1
    45    4   42 1
    46    5   43 1
    47   11   44 1
    48   11   45 1
    49   12   46 1
    50   12   47 1
    51   13   48 1
    52   13   49 1
    53   14   50 1
    54   14   51 1
    55   15   52 1
    56   15   53 1
    57   16   54 1
    58   16   55 1
    59   17   56 1
    60   17   57 1
    61   18   58 1
    62   18   59 1
    63   19   60 1
    64   19   61 1
    65   20   62 1
    66   21   63 1
    67   23   64 1
    68   23   65 1
    69   24   66 1
    70   24   67 1
    71   25   68 1
    72   25   69 1
    73   26   70 1
    74   26   71 1
    75   27   72 1
    76   27   73 1
    77   28   74 1
    78   31   75 1
    79   31   76 1
    80   32   77 1
    81   32   78 1
    82   33   79 1
    83   34   80 1
@<TRIPOS>MOLECULE
1a46_ligand_204
   80    83     0     0     0
SMALL
USER_CHARGES

mmff94s_NoEstat = 85.15
@<TRIPOS>ATOM
      1 C1         11.1945    5.3647   -9.7731 C.ar      1 <0>        -0.1300
      2 C2         11.8337    5.1154   -8.5586 C.ar      1 <0>        -0.1323
      3 C3          9.8873    5.8513   -9.7863 C.ar      1 <0>        -0.1309
      4 C4         11.1656    5.3526   -7.3573 C.ar      1 <0>        -0.1275
      5 C5          9.2192    6.0884   -8.5850 C.ar      1 <0>        -0.1272
      6 C6          9.8628    5.8375   -7.3783 C.ar      1 <0>        -0.0843
      7 C7          7.6425    5.1042   -4.2977 C.2       1 <0>         0.6709
      8 C8          5.2358    2.3798    1.5634 C.2       1 <0>         0.4867
      9 C9          5.6457    1.7076    2.8411 C.2       1 <0>         0.5883
     10 C10         6.5256    3.6321   -1.6689 C.2       1 <0>         0.6572
     11 C11         2.5045   -1.4855    4.9229 C.3       1 <0>        -0.0802
     12 C12         2.2294    0.0020    5.1270 C.3       1 <0>        -0.0765
     13 C13         3.7382   -1.7230    4.0561 C.3       1 <0>        -0.0774
     14 C14         3.4569    0.7312    5.6748 C.3       1 <0>        -0.0953
     15 C15         4.9623   -0.9899    4.6068 C.3       1 <0>        -0.0906
     16 C16         4.6595    3.2577   -3.3009 C.3       1 <0>        -0.0871
     17 C17         7.3760    4.3986   -6.7074 C.3       1 <0>        -0.0716
     18 C18         5.3367    2.3027   -4.2819 C.3       1 <0>         0.1333
     19 C19         6.2012    3.5529   -6.1864 C.3       1 <0>         0.1246
     20 C20         5.7868    4.1659   -2.8575 C.3       1 <0>         0.0606
     21 C21         4.7122    0.5090    4.8206 C.3       1 <0>         0.1012
     22 C22         8.3797    4.8486   -5.6198 C.3       1 <0>         0.1554
     23 C23         9.1441    6.0926   -6.0861 C.3       1 <0>        -0.0356
     24 C24         6.0158    5.3379    2.0114 C.3       1 <0>        -0.0795
     25 C25         6.7209    6.4716    2.7653 C.3       1 <0>        -0.1203
     26 C26         6.9719    4.2276    1.5544 C.3       1 <0>        -0.0920
     27 C27         5.7742    7.5909    3.1979 C.3       1 <0>         0.1502
     28 C28         6.2906    3.1130    0.7514 C.3       1 <0>         0.0224
     29 N1          6.7058    4.1331   -3.9791 N.am      1 <0>        -0.3553
     30 N2          6.4777    3.0462   -4.8435 N.3       1 <0>        -0.4320
     31 N3          9.3531    3.7833   -5.3380 N.3       1 <0>        -0.9031
     32 N4          4.7531    7.0666    4.0988 N.3       1 <0>        -0.9068
     33 N5          4.5746    1.1891    3.5309 N.am      1 <0>        -0.5526
     34 N6          5.7762    3.5917   -0.5046 N.am      1 <0>        -0.5576
     35 O1          7.8821    6.0807   -3.5877 O.2       1 <0>        -0.6710
     36 O2          4.0412    2.3628    1.2952 O.2       1 <0>        -0.4901
     37 O3          6.8302    1.7091    3.1337 O.2       1 <0>        -0.5902
     38 O4          7.6924    3.2783   -1.7917 O.2       1 <0>        -0.5833
     39 H1         11.7147    5.1800  -10.7084 H         1 <0>         0.1320
     40 H2         12.8515    4.7366   -8.5485 H         1 <0>         0.1324
     41 H3          9.3897    6.0452  -10.7320 H         1 <0>         0.1328
     42 H4         11.6716    5.1554   -6.4159 H         1 <0>         0.1324
     43 H5          8.2009    6.4675   -8.6050 H         1 <0>         0.1434
     44 H6          2.6499   -1.9644    5.8991 H         1 <0>         0.0405
     45 H7          1.6322   -1.9621    4.4616 H         1 <0>         0.0421
     46 H8          1.9253    0.4517    4.1741 H         1 <0>         0.0362
     47 H9          1.3889    0.1282    5.8190 H         1 <0>         0.0439
     48 H10         3.9478   -2.7974    4.0021 H         1 <0>         0.0350
     49 H11         3.5352   -1.3881    3.0317 H         1 <0>         0.0428
     50 H12         3.2358    1.8030    5.7487 H         1 <0>         0.0663
     51 H13         3.6533    0.3764    6.6946 H         1 <0>         0.0466
     52 H14         5.2453   -1.4437    5.5651 H         1 <0>         0.0493
     53 H15         5.8075   -1.1373    3.9236 H         1 <0>         0.0520
     54 H16         3.9023    3.8458   -3.8340 H         1 <0>         0.0915
     55 H17         4.1709    2.7289   -2.4768 H         1 <0>         0.0601
     56 H18         7.9078    3.8408   -7.4902 H         1 <0>         0.0688
     57 H19         6.9559    5.2827   -7.2061 H         1 <0>         0.0630
     58 H20         5.7303    1.4383   -3.7336 H         1 <0>         0.0807
     59 H21         4.6390    1.9190   -5.0344 H         1 <0>         0.0380
     60 H22         5.2889    4.1652   -6.1941 H         1 <0>         0.0484
     61 H23         6.0298    2.7205   -6.8794 H         1 <0>         0.0697
     62 H24         5.4651    5.1881   -2.6391 H         1 <0>         0.0843
     63 H25         5.5797    0.9644    5.3094 H         1 <0>         0.0831
     64 H26         9.8520    6.3858   -5.3087 H         1 <0>         0.0704
     65 H27         8.4405    6.9195   -6.1990 H         1 <0>         0.0718
     66 H28         5.2579    4.9142    2.6804 H         1 <0>         0.0606
     67 H29         5.4809    5.7546    1.1500 H         1 <0>         0.0458
     68 H30         7.2000    6.0392    3.6534 H         1 <0>         0.0375
     69 H31         7.5258    6.8807    2.1417 H         1 <0>         0.0392
     70 H32         7.4599    3.7926    2.4354 H         1 <0>         0.0606
     71 H33         7.7645    4.6634    0.9347 H         1 <0>         0.0579
     72 H34         5.2908    8.0386    2.3228 H         1 <0>         0.0571
     73 H35         6.3225    8.3806    3.7198 H         1 <0>         0.0503
     74 H36         7.0421    2.3587    0.4881 H         1 <0>         0.0993
     75 H37         9.0331    2.8434   -5.3754 H         1 <0>         0.3700
     76 H38        10.2196    4.0460   -4.9287 H         1 <0>         0.3660
     77 H39         4.0028    7.6695    4.3608 H         1 <0>         0.3465
     78 H40         4.9421    6.2118    4.5770 H         1 <0>         0.3446
     79 H41         3.6470    1.2820    3.1279 H         1 <0>         0.3148
     80 H42         4.8120    3.9176   -0.5391 H         1 <0>         0.3220
@<TRIPOS>BOND
     1    1    2 ar
     2    1    3 ar
     3    2    4 ar
     4    3    5 ar
     5    4    6 ar
     6    5    6 ar
     7    6   23 1
     8    7   22 1
     9    7   29 am
    10    7   35 2
    11    8    9 1
    12    8   28 1
    13    8   36 2
    14    9   33 am
    15    9   37 2
    16   10   20 1
    17   10   34 am
    18   10   38 2
    19   11   12 1
    20   11   13 1
    21   12   14 1
    22   13   15 1
    23   14   21 1
    24   15   21 1
    25   16   18 1
    26   16   20 1
    27   17   19 1
    28   17   22 1
    29   18   30 1
    30   19   30 1
    31   20   29 1
    32   21   33 1
    33   22   23 1
    34   22   31 1
    35   24   25 1
    36   24   26 1
    37   25   27 1
    38   26   28 1
    39   27   32 1
    40   28   34 1
    41   29   30 1
    42    1   39 1
    43    2   40 1
    44    3   41 1
    45    4   42 1
    46    5   43 1
    47   11   44 1
    48   11   45 1
    49   12   46 1
    50   12   47 1
    51   13   48 1
    52   13   49 1
    53   14   50 1
    54   14   51 1
    55   15   52 1
    56   15   53 1
    57   16   54 1
    58   16   55 1
    59   17   56 1
    60   17   57 1
    61   18   58 1
    62   18   59 1
    63   19   60 1
    64   19   61 1
    65   20   62 1
    66   21   63 1
    67   23   64 1
    68   23   65 1
    69   24   66 1
    70   24   67 1
    71   25   68 1
    72   25   69 1
    73   26   70 1
    74   26   71 1
    75   27   72 1
    76   27   73 1
    77   28   74 1
    78   31   75 1
    79   31   76 1
    80   32   77 1
    81   32   78 1
    82   33   79 1
    83   34   80 1
@<TRIPOS>MOLECULE
1a46_ligand_205
   80    83     0     0     0
SMALL
USER_CHARGES

mmff94s_NoEstat = 85.19
@<TRIPOS>ATOM
      1 C1          9.0003   12.0144   -5.4225 C.ar      1 <0>        -0.1300
      2 C2          9.4537   11.5665   -4.1818 C.ar      1 <0>        -0.1323
      3 C3          7.8120   11.5127   -5.9535 C.ar      1 <0>        -0.1309
      4 C4          8.7189   10.6167   -3.4722 C.ar      1 <0>        -0.1275
      5 C5          7.0772   10.5629   -5.2439 C.ar      1 <0>        -0.1272
      6 C6          7.5355   10.1211   -4.0078 C.ar      1 <0>        -0.0843
      7 C7          6.3757    6.6257   -2.8269 C.2       1 <0>         0.6709
      8 C8          5.2358    2.3798    1.5634 C.2       1 <0>         0.4867
      9 C9          3.8230    2.3549    1.0577 C.2       1 <0>         0.5883
     10 C10         6.5256    3.6321   -1.6689 C.2       1 <0>         0.6572
     11 C11         2.9530   -0.0321   -3.1781 C.3       1 <0>        -0.0802
     12 C12         3.1727    1.4522   -2.8979 C.3       1 <0>        -0.0765
     13 C13         3.0540   -0.8726   -1.9080 C.3       1 <0>        -0.0774
     14 C14         2.2349    1.9630   -1.8032 C.3       1 <0>        -0.0953
     15 C15         2.1162   -0.3564   -0.8157 C.3       1 <0>        -0.0906
     16 C16         5.8400    3.2307   -4.0468 C.3       1 <0>        -0.0871
     17 C17         7.0291    7.4385   -5.1265 C.3       1 <0>        -0.0716
     18 C18         7.1120    3.6562   -4.7776 C.3       1 <0>         0.1333
     19 C19         6.8955    5.9616   -5.5361 C.3       1 <0>         0.1246
     20 C20         5.7868    4.1659   -2.8575 C.3       1 <0>         0.0606
     21 C21         2.3173    1.1346   -0.5141 C.3       1 <0>         0.1012
     22 C22         7.1815    7.6752   -3.6055 C.3       1 <0>         0.1554
     23 C23         6.7451    9.0995   -3.2444 C.3       1 <0>        -0.0356
     24 C24         7.6485    3.7409    2.8432 C.3       1 <0>        -0.0795
     25 C25         8.2774    4.8743    3.6620 C.3       1 <0>        -0.1203
     26 C26         6.9719    4.2276    1.5544 C.3       1 <0>        -0.0920
     27 C27         8.9284    4.3945    4.9589 C.3       1 <0>         0.1502
     28 C28         6.2906    3.1130    0.7514 C.3       1 <0>         0.0224
     29 N1          6.5101    5.3360   -3.3173 N.am      1 <0>        -0.3553
     30 N2          7.3084    5.0783   -4.4472 N.3       1 <0>        -0.4320
     31 N3          8.5804    7.4980   -3.1893 N.3       1 <0>        -0.9031
     32 N4          9.4866    5.5266    5.6910 N.3       1 <0>        -0.9068
     33 N5          3.6077    1.3491    0.1446 N.am      1 <0>        -0.5526
     34 N6          5.7762    3.5917   -0.5046 N.am      1 <0>        -0.5576
     35 O1          5.6876    6.9159   -1.8485 O.2       1 <0>        -0.6710
     36 O2          5.4669    1.7271    2.5732 O.2       1 <0>        -0.4901
     37 O3          3.0517    3.2042    1.4734 O.2       1 <0>        -0.5902
     38 O4          7.6924    3.2783   -1.7917 O.2       1 <0>        -0.5833
     39 H1          9.5724   12.7539   -5.9752 H         1 <0>         0.1320
     40 H2         10.3789   11.9573   -3.7685 H         1 <0>         0.1324
     41 H3          7.4591   11.8615   -6.9197 H         1 <0>         0.1328
     42 H4          9.0800   10.2736   -2.5062 H         1 <0>         0.1324
     43 H5          6.1526   10.1776   -5.6655 H         1 <0>         0.1434
     44 H6          1.9625   -0.1732   -3.6281 H         1 <0>         0.0405
     45 H7          3.6884   -0.3819   -3.9114 H         1 <0>         0.0421
     46 H8          4.2152    1.6178   -2.6004 H         1 <0>         0.0362
     47 H9          3.0107    2.0271   -3.8169 H         1 <0>         0.0439
     48 H10         2.8101   -1.9161   -2.1377 H         1 <0>         0.0350
     49 H11         4.0885   -0.8620   -1.5440 H         1 <0>         0.0428
     50 H12         2.4669    3.0139   -1.5918 H         1 <0>         0.0663
     51 H13         1.2041    1.9346   -2.1788 H         1 <0>         0.0466
     52 H14         1.0786   -0.5182   -1.1345 H         1 <0>         0.0493
     53 H15         2.2645   -0.9487    0.0954 H         1 <0>         0.0520
     54 H16         4.9736    3.4114   -4.6951 H         1 <0>         0.0915
     55 H17         5.8531    2.1713   -3.7729 H         1 <0>         0.0601
     56 H18         7.8805    7.8879   -5.6555 H         1 <0>         0.0688
     57 H19         6.1391    7.9685   -5.4921 H         1 <0>         0.0630
     58 H20         7.9647    3.0932   -4.3794 H         1 <0>         0.0807
     59 H21         7.0607    3.4497   -5.8523 H         1 <0>         0.0380
     60 H22         5.8545    5.7643   -5.8276 H         1 <0>         0.0484
     61 H23         7.5124    5.7838   -6.4252 H         1 <0>         0.0697
     62 H24         4.7698    4.4250   -2.5496 H         1 <0>         0.0843
     63 H25         1.5570    1.4760    0.1962 H         1 <0>         0.0831
     64 H26         6.8700    9.2469   -2.1701 H         1 <0>         0.0704
     65 H27         5.6795    9.2080   -3.4549 H         1 <0>         0.0718
     66 H28         8.4445    3.0306    2.5915 H         1 <0>         0.0606
     67 H29         6.9275    3.2007    3.4679 H         1 <0>         0.0458
     68 H30         9.0354    5.3625    3.0356 H         1 <0>         0.0375
     69 H31         7.5157    5.6329    3.8824 H         1 <0>         0.0392
     70 H32         7.7210    4.7221    0.9235 H         1 <0>         0.0606
     71 H33         6.2174    4.9831    1.8035 H         1 <0>         0.0579
     72 H34         9.7251    3.6753    4.7403 H         1 <0>         0.0571
     73 H35         8.1937    3.8977    5.5994 H         1 <0>         0.0503
     74 H36         7.0421    2.3587    0.4881 H         1 <0>         0.0993
     75 H37         9.1142    6.7979   -3.6499 H         1 <0>         0.3700
     76 H38         8.8693    7.9327   -2.3437 H         1 <0>         0.3660
     77 H39        10.0430    5.3371    6.4969 H         1 <0>         0.3465
     78 H40         9.1331    6.4373    5.4892 H         1 <0>         0.3446
     79 H41         4.3778    0.7274   -0.0830 H         1 <0>         0.3148
     80 H42         4.8120    3.9176   -0.5391 H         1 <0>         0.3220
@<TRIPOS>BOND
     1    1    2 ar
     2    1    3 ar
     3    2    4 ar
     4    3    5 ar
     5    4    6 ar
     6    5    6 ar
     7    6   23 1
     8    7   22 1
     9    7   29 am
    10    7   35 2
    11    8    9 1
    12    8   28 1
    13    8   36 2
    14    9   33 am
    15    9   37 2
    16   10   20 1
    17   10   34 am
    18   10   38 2
    19   11   12 1
    20   11   13 1
    21   12   14 1
    22   13   15 1
    23   14   21 1
    24   15   21 1
    25   16   18 1
    26   16   20 1
    27   17   19 1
    28   17   22 1
    29   18   30 1
    30   19   30 1
    31   20   29 1
    32   21   33 1
    33   22   23 1
    34   22   31 1
    35   24   25 1
    36   24   26 1
    37   25   27 1
    38   26   28 1
    39   27   32 1
    40   28   34 1
    41   29   30 1
    42    1   39 1
    43    2   40 1
    44    3   41 1
    45    4   42 1
    46    5   43 1
    47   11   44 1
    48   11   45 1
    49   12   46 1
    50   12   47 1
    51   13   48 1
    52   13   49 1
    53   14   50 1
    54   14   51 1
    55   15   52 1
    56   15   53 1
    57   16   54 1
    58   16   55 1
    59   17   56 1
    60   17   57 1
    61   18   58 1
    62   18   59 1
    63   19   60 1
    64   19   61 1
    65   20   62 1
    66   21   63 1
    67   23   64 1
    68   23   65 1
    69   24   66 1
    70   24   67 1
    71   25   68 1
    72   25   69 1
    73   26   70 1
    74   26   71 1
    75   27   72 1
    76   27   73 1
    77   28   74 1
    78   31   75 1
    79   31   76 1
    80   32   77 1
    81   32   78 1
    82   33   79 1
    83   34   80 1
@<TRIPOS>MOLECULE
1a46_ligand_206
   80    83     0     0     0
SMALL
USER_CHARGES

mmff94s_NoEstat = 85.20
@<TRIPOS>ATOM
      1 C1         11.2307    8.4980   -6.9074 C.ar      1 <0>        -0.1300
      2 C2         11.6037    8.0134   -5.6538 C.ar      1 <0>        -0.1323
      3 C3          9.8807    8.5885   -7.2468 C.ar      1 <0>        -0.1309
      4 C4         10.6268    7.6193   -4.7395 C.ar      1 <0>        -0.1275
      5 C5          8.9038    8.1943   -6.3325 C.ar      1 <0>        -0.1272
      6 C6          9.2832    7.7123   -5.0848 C.ar      1 <0>        -0.0843
      7 C7          6.8112    5.3648   -3.2584 C.2       1 <0>         0.6709
      8 C8          5.2358    2.3798    1.5634 C.2       1 <0>         0.4867
      9 C9          3.8230    2.3549    1.0577 C.2       1 <0>         0.5883
     10 C10         5.7098    2.8119   -1.6475 C.2       1 <0>         0.6572
     11 C11         1.4085   -1.9541    1.0568 C.3       1 <0>        -0.0802
     12 C12         2.4102   -1.7120   -0.0693 C.3       1 <0>        -0.0765
     13 C13         1.3521   -0.7805    2.0311 C.3       1 <0>        -0.0774
     14 C14         2.1398   -0.3897   -0.7884 C.3       1 <0>        -0.0953
     15 C15         1.0838    0.5396    1.3070 C.3       1 <0>        -0.0906
     16 C16         4.5614    2.5584   -3.8616 C.3       1 <0>        -0.0871
     17 C17         7.4096    5.5196   -5.7065 C.3       1 <0>        -0.0716
     18 C18         5.7552    2.2338   -4.7574 C.3       1 <0>         0.1333
     19 C19         6.5359    4.2626   -5.8584 C.3       1 <0>         0.1246
     20 C20         5.1372    3.5153   -2.8394 C.3       1 <0>         0.0606
     21 C21         2.0784    0.8075    0.1696 C.3       1 <0>         0.1012
     22 C22         7.8862    5.8039   -4.2626 C.3       1 <0>         0.1554
     23 C23         8.2324    7.2883   -4.1013 C.3       1 <0>        -0.0356
     24 C24         7.6485    3.7409    2.8432 C.3       1 <0>        -0.0795
     25 C25         8.2774    4.8743    3.6620 C.3       1 <0>        -0.1203
     26 C26         6.9719    4.2276    1.5544 C.3       1 <0>        -0.0920
     27 C27         8.9284    4.3945    4.9589 C.3       1 <0>         0.1502
     28 C28         6.2906    3.1130    0.7514 C.3       1 <0>         0.0224
     29 N1          6.2461    4.1312   -3.5428 N.am      1 <0>        -0.3553
     30 N2          6.6457    3.4048   -4.6800 N.3       1 <0>        -0.4320
     31 N3          9.0821    5.0103   -3.9441 N.3       1 <0>        -0.9031
     32 N4          9.4866    5.5266    5.6910 N.3       1 <0>        -0.9068
     33 N5          3.4082    1.0891    0.7148 N.am      1 <0>        -0.5526
     34 N6          5.7762    3.5917   -0.5046 N.am      1 <0>        -0.5576
     35 O1          6.4995    6.0504   -2.2848 O.2       1 <0>        -0.6710
     36 O2          5.4669    1.7271    2.5732 O.2       1 <0>        -0.4901
     37 O3          3.2225    3.4147    0.9857 O.2       1 <0>        -0.5902
     38 O4          6.0670    1.6440   -1.7490 O.2       1 <0>        -0.5833
     39 H1         11.9913    8.8048   -7.6194 H         1 <0>         0.1320
     40 H2         12.6548    7.9430   -5.3897 H         1 <0>         0.1324
     41 H3          9.5904    8.9656   -8.2230 H         1 <0>         0.1328
     42 H4         10.9268    7.2430   -3.7651 H         1 <0>         0.1324
     43 H5          7.8545    8.2683   -6.6056 H         1 <0>         0.1434
     44 H6          0.4123   -2.1163    0.6268 H         1 <0>         0.0405
     45 H7          1.6748   -2.8696    1.5969 H         1 <0>         0.0421
     46 H8          3.4275   -1.7101    0.3405 H         1 <0>         0.0362
     47 H9          2.3604   -2.5373   -0.7887 H         1 <0>         0.0439
     48 H10         0.5662   -0.9575    2.7741 H         1 <0>         0.0350
     49 H11         2.2989   -0.7161    2.5809 H         1 <0>         0.0428
     50 H12         2.9155   -0.2268   -1.5465 H         1 <0>         0.0663
     51 H13         1.1844   -0.4667   -1.3229 H         1 <0>         0.0466
     52 H14         0.0677    0.5160    0.8929 H         1 <0>         0.0493
     53 H15         1.1117    1.3607    2.0335 H         1 <0>         0.0520
     54 H16         3.7944    3.0721   -4.4543 H         1 <0>         0.0915
     55 H17         4.1162    1.6608   -3.4217 H         1 <0>         0.0601
     56 H18         8.2801    5.4412   -6.3721 H         1 <0>         0.0688
     57 H19         6.8297    6.3763   -6.0759 H         1 <0>         0.0630
     58 H20         6.2922    1.3700   -4.3474 H         1 <0>         0.0807
     59 H21         5.4490    1.9715   -5.7762 H         1 <0>         0.0380
     60 H22         5.4939    4.5694   -6.0242 H         1 <0>         0.0484
     61 H23         6.8523    3.7181   -6.7562 H         1 <0>         0.0697
     62 H24         4.4225    4.2667   -2.4920 H         1 <0>         0.0843
     63 H25         1.7819    1.7076   -0.3790 H         1 <0>         0.0831
     64 H26         8.5747    7.4635   -3.0797 H         1 <0>         0.0704
     65 H27         7.3253    7.8806   -4.2350 H         1 <0>         0.0718
     66 H28         8.4445    3.0306    2.5915 H         1 <0>         0.0606
     67 H29         6.9275    3.2007    3.4679 H         1 <0>         0.0458
     68 H30         9.0354    5.3625    3.0356 H         1 <0>         0.0375
     69 H31         7.5157    5.6329    3.8824 H         1 <0>         0.0392
     70 H32         7.7210    4.7221    0.9235 H         1 <0>         0.0606
     71 H33         6.2174    4.9831    1.8035 H         1 <0>         0.0579
     72 H34         9.7251    3.6753    4.7403 H         1 <0>         0.0571
     73 H35         8.1937    3.8977    5.5994 H         1 <0>         0.0503
     74 H36         7.0421    2.3587    0.4881 H         1 <0>         0.0993
     75 H37         9.1461    4.0964   -4.3289 H         1 <0>         0.3700
     76 H38         9.6671    5.3316   -3.2079 H         1 <0>         0.3660
     77 H39        10.0430    5.3371    6.4969 H         1 <0>         0.3465
     78 H40         9.1331    6.4373    5.4892 H         1 <0>         0.3446
     79 H41         4.0528    0.3153    0.8455 H         1 <0>         0.3148
     80 H42         5.4441    4.5531   -0.5557 H         1 <0>         0.3220
@<TRIPOS>BOND
     1    1    2 ar
     2    1    3 ar
     3    2    4 ar
     4    3    5 ar
     5    4    6 ar
     6    5    6 ar
     7    6   23 1
     8    7   22 1
     9    7   29 am
    10    7   35 2
    11    8    9 1
    12    8   28 1
    13    8   36 2
    14    9   33 am
    15    9   37 2
    16   10   20 1
    17   10   34 am
    18   10   38 2
    19   11   12 1
    20   11   13 1
    21   12   14 1
    22   13   15 1
    23   14   21 1
    24   15   21 1
    25   16   18 1
    26   16   20 1
    27   17   19 1
    28   17   22 1
    29   18   30 1
    30   19   30 1
    31   20   29 1
    32   21   33 1
    33   22   23 1
    34   22   31 1
    35   24   25 1
    36   24   26 1
    37   25   27 1
    38   26   28 1
    39   27   32 1
    40   28   34 1
    41   29   30 1
    42    1   39 1
    43    2   40 1
    44    3   41 1
    45    4   42 1
    46    5   43 1
    47   11   44 1
    48   11   45 1
    49   12   46 1
    50   12   47 1
    51   13   48 1
    52   13   49 1
    53   14   50 1
    54   14   51 1
    55   15   52 1
    56   15   53 1
    57   16   54 1
    58   16   55 1
    59   17   56 1
    60   17   57 1
    61   18   58 1
    62   18   59 1
    63   19   60 1
    64   19   61 1
    65   20   62 1
    66   21   63 1
    67   23   64 1
    68   23   65 1
    69   24   66 1
    70   24   67 1
    71   25   68 1
    72   25   69 1
    73   26   70 1
    74   26   71 1
    75   27   72 1
    76   27   73 1
    77   28   74 1
    78   31   75 1
    79   31   76 1
    80   32   77 1
    81   32   78 1
    82   33   79 1
    83   34   80 1
@<TRIPOS>MOLECULE
1a46_ligand_207
   80    83     0     0     0
SMALL
USER_CHARGES

mmff94s_NoEstat = 85.21
@<TRIPOS>ATOM
      1 C1         -4.2961    6.3604   -2.7495 C.ar      1 <0>        -0.1300
      2 C2         -3.8917    5.7888   -1.5431 C.ar      1 <0>        -0.1323
      3 C3         -3.4839    6.2539   -3.8786 C.ar      1 <0>        -0.1309
      4 C4         -2.6752    5.1109   -1.4657 C.ar      1 <0>        -0.1275
      5 C5         -2.2674    5.5759   -3.8012 C.ar      1 <0>        -0.1272
      6 C6         -1.8709    5.0088   -2.5952 C.ar      1 <0>        -0.0843
      7 C7          1.9202    4.4855   -2.0375 C.2       1 <0>         0.6709
      8 C8          5.2358    2.3798    1.5634 C.2       1 <0>         0.4867
      9 C9          5.6457    1.7076    2.8411 C.2       1 <0>         0.5883
     10 C10         4.7954    4.5647   -0.6048 C.2       1 <0>         0.6572
     11 C11         7.2205    4.5846    6.5343 C.3       1 <0>        -0.0802
     12 C12         7.9988    3.7938    5.4859 C.3       1 <0>        -0.0765
     13 C13         5.7119    4.4466    6.3477 C.3       1 <0>        -0.0774
     14 C14         7.5631    2.3284    5.4485 C.3       1 <0>        -0.0953
     15 C15         5.2816    2.9796    6.3086 C.3       1 <0>        -0.0906
     16 C16         5.1345    6.1376   -2.5274 C.3       1 <0>        -0.0871
     17 C17         0.6797    6.3873   -3.1418 C.3       1 <0>        -0.0716
     18 C18         4.2227    7.2889   -2.1078 C.3       1 <0>         0.1333
     19 C19         2.0578    7.0682   -3.2043 C.3       1 <0>         0.1246
     20 C20         4.4137    4.9104   -2.0113 C.3       1 <0>         0.0606
     21 C21         6.0492    2.1618    5.2613 C.3       1 <0>         0.1012
     22 C22         0.5786    5.2268   -2.1241 C.3       1 <0>         0.1554
     23 C23        -0.5623    4.2796   -2.5120 C.3       1 <0>        -0.0356
     24 C24         8.0800    4.9598    0.7851 C.3       1 <0>        -0.0795
     25 C25         8.7880    6.0338    1.6192 C.3       1 <0>        -0.1203
     26 C26         6.9719    4.2276    1.5544 C.3       1 <0>        -0.0920
     27 C27         9.9095    6.7454    0.8629 C.3       1 <0>         0.1502
     28 C28         6.2906    3.1130    0.7514 C.3       1 <0>         0.0224
     29 N1          3.0235    5.3233   -1.9852 N.am      1 <0>        -0.3553
     30 N2          2.8653    6.7208   -2.0365 N.3       1 <0>        -0.4320
     31 N3          0.3159    5.7420   -0.7724 N.3       1 <0>        -0.9031
     32 N4         10.5470    7.7366    1.7233 N.3       1 <0>        -0.9068
     33 N5          5.6572    2.5717    3.9111 N.am      1 <0>        -0.5526
     34 N6          5.7762    3.5917   -0.5046 N.am      1 <0>        -0.5576
     35 O1          1.9934    3.2573   -2.0040 O.2       1 <0>        -0.6710
     36 O2          4.0412    2.3628    1.2952 O.2       1 <0>        -0.4901
     37 O3          5.9343    0.5229    2.7970 O.2       1 <0>        -0.5902
     38 O4          4.2448    5.1367    0.3286 O.2       1 <0>        -0.5833
     39 H1         -5.2433    6.8883   -2.8098 H         1 <0>         0.1320
     40 H2         -4.5242    5.8718   -0.6641 H         1 <0>         0.1324
     41 H3         -3.7988    6.6991   -4.8178 H         1 <0>         0.1328
     42 H4         -2.3683    4.6687   -0.5215 H         1 <0>         0.1324
     43 H5         -1.6411    5.4981   -4.6860 H         1 <0>         0.1434
     44 H6          7.4960    4.2286    7.5348 H         1 <0>         0.0405
     45 H7          7.5034    5.6421    6.4838 H         1 <0>         0.0421
     46 H8          7.8510    4.2501    4.4997 H         1 <0>         0.0362
     47 H9          9.0714    3.8519    5.7040 H         1 <0>         0.0439
     48 H10         5.1924    4.9595    7.1652 H         1 <0>         0.0350
     49 H11         5.4113    4.9461    5.4188 H         1 <0>         0.0428
     50 H12         8.1017    1.8131    4.6439 H         1 <0>         0.0663
     51 H13         7.8603    1.8469    6.3888 H         1 <0>         0.0466
     52 H14         5.4476    2.5355    7.2984 H         1 <0>         0.0493
     53 H15         4.2038    2.9258    6.1130 H         1 <0>         0.0520
     54 H16         5.1868    6.0993   -3.6226 H         1 <0>         0.0915
     55 H17         6.1502    6.2483   -2.1355 H         1 <0>         0.0601
     56 H18        -0.0889    7.1398   -2.9187 H         1 <0>         0.0688
     57 H19         0.4458    6.0134   -4.1479 H         1 <0>         0.0630
     58 H20         4.5037    7.6265   -1.1030 H         1 <0>         0.0807
     59 H21         4.3115    8.1522   -2.7765 H         1 <0>         0.0380
     60 H22         2.5627    6.7687   -4.1331 H         1 <0>         0.0484
     61 H23         1.9139    8.1541   -3.2580 H         1 <0>         0.0697
     62 H24         4.5519    4.0254   -2.6387 H         1 <0>         0.0843
     63 H25         5.7787    1.1040    5.3446 H         1 <0>         0.0831
     64 H26        -0.6211    3.4755   -1.7762 H         1 <0>         0.0704
     65 H27        -0.3254    3.8127   -3.4698 H         1 <0>         0.0718
     66 H28         7.6494    5.4516   -0.0948 H         1 <0>         0.0606
     67 H29         8.8216    4.2418    0.4157 H         1 <0>         0.0458
     68 H30         8.0356    6.7709    1.9287 H         1 <0>         0.0375
     69 H31         9.1825    5.5824    2.5383 H         1 <0>         0.0392
     70 H32         6.2171    4.9575    1.8728 H         1 <0>         0.0606
     71 H33         7.3929    3.7874    2.4660 H         1 <0>         0.0579
     72 H34         9.5108    7.2416   -0.0285 H         1 <0>         0.0571
     73 H35        10.6706    6.0303    0.5375 H         1 <0>         0.0503
     74 H36         7.0421    2.3587    0.4881 H         1 <0>         0.0993
     75 H37         0.7364    6.6054   -0.5173 H         1 <0>         0.3700
     76 H38        -0.0926    5.1211   -0.1128 H         1 <0>         0.3660
     77 H39        11.2163    8.3531    1.3147 H         1 <0>         0.3465
     78 H40        10.4498    7.6340    2.7108 H         1 <0>         0.3446
     79 H41         5.3815    3.5372    3.7580 H         1 <0>         0.3148
     80 H42         6.1527    3.1949   -1.3636 H         1 <0>         0.3220
@<TRIPOS>BOND
     1    1    2 ar
     2    1    3 ar
     3    2    4 ar
     4    3    5 ar
     5    4    6 ar
     6    5    6 ar
     7    6   23 1
     8    7   22 1
     9    7   29 am
    10    7   35 2
    11    8    9 1
    12    8   28 1
    13    8   36 2
    14    9   33 am
    15    9   37 2
    16   10   20 1
    17   10   34 am
    18   10   38 2
    19   11   12 1
    20   11   13 1
    21   12   14 1
    22   13   15 1
    23   14   21 1
    24   15   21 1
    25   16   18 1
    26   16   20 1
    27   17   19 1
    28   17   22 1
    29   18   30 1
    30   19   30 1
    31   20   29 1
    32   21   33 1
    33   22   23 1
    34   22   31 1
    35   24   25 1
    36   24   26 1
    37   25   27 1
    38   26   28 1
    39   27   32 1
    40   28   34 1
    41   29   30 1
    42    1   39 1
    43    2   40 1
    44    3   41 1
    45    4   42 1
    46    5   43 1
    47   11   44 1
    48   11   45 1
    49   12   46 1
    50   12   47 1
    51   13   48 1
    52   13   49 1
    53   14   50 1
    54   14   51 1
    55   15   52 1
    56   15   53 1
    57   16   54 1
    58   16   55 1
    59   17   56 1
    60   17   57 1
    61   18   58 1
    62   18   59 1
    63   19   60 1
    64   19   61 1
    65   20   62 1
    66   21   63 1
    67   23   64 1
    68   23   65 1
    69   24   66 1
    70   24   67 1
    71   25   68 1
    72   25   69 1
    73   26   70 1
    74   26   71 1
    75   27   72 1
    76   27   73 1
    77   28   74 1
    78   31   75 1
    79   31   76 1
    80   32   77 1
    81   32   78 1
    82   33   79 1
    83   34   80 1
@<TRIPOS>MOLECULE
1a46_ligand_208
   80    83     0     0     0
SMALL
USER_CHARGES

mmff94s_NoEstat = 85.22
@<TRIPOS>ATOM
      1 C1          9.0003   12.0144   -5.4225 C.ar      1 <0>        -0.1300
      2 C2          9.4537   11.5665   -4.1818 C.ar      1 <0>        -0.1323
      3 C3          7.8120   11.5127   -5.9535 C.ar      1 <0>        -0.1309
      4 C4          8.7189   10.6167   -3.4722 C.ar      1 <0>        -0.1275
      5 C5          7.0772   10.5629   -5.2439 C.ar      1 <0>        -0.1272
      6 C6          7.5355   10.1211   -4.0078 C.ar      1 <0>        -0.0843
      7 C7          6.3757    6.6257   -2.8269 C.2       1 <0>         0.6709
      8 C8          5.2358    2.3798    1.5634 C.2       1 <0>         0.4867
      9 C9          5.3950    2.3039    3.0538 C.2       1 <0>         0.5883
     10 C10         6.5256    3.6321   -1.6689 C.2       1 <0>         0.6572
     11 C11         5.1466    6.5307    5.5973 C.3       1 <0>        -0.0802
     12 C12         6.3515    5.7364    5.1001 C.3       1 <0>        -0.0765
     13 C13         3.8276    5.8779    5.1923 C.3       1 <0>        -0.0774
     14 C14         6.2828    4.2740    5.5420 C.3       1 <0>        -0.0953
     15 C15         3.7647    4.4152    5.6343 C.3       1 <0>        -0.0906
     16 C16         5.8400    3.2307   -4.0468 C.3       1 <0>        -0.0871
     17 C17         7.0291    7.4385   -5.1265 C.3       1 <0>        -0.0716
     18 C18         7.1120    3.6562   -4.7776 C.3       1 <0>         0.1333
     19 C19         6.8955    5.9616   -5.5361 C.3       1 <0>         0.1246
     20 C20         5.7868    4.1659   -2.8575 C.3       1 <0>         0.0606
     21 C21         4.9654    3.5937    5.1463 C.3       1 <0>         0.1012
     22 C22         7.1815    7.6752   -3.6055 C.3       1 <0>         0.1554
     23 C23         6.7451    9.0995   -3.2444 C.3       1 <0>        -0.0356
     24 C24         8.0800    4.9598    0.7851 C.3       1 <0>        -0.0795
     25 C25         8.7880    6.0338    1.6192 C.3       1 <0>        -0.1203
     26 C26         6.9719    4.2276    1.5544 C.3       1 <0>        -0.0920
     27 C27         9.9095    6.7454    0.8629 C.3       1 <0>         0.1502
     28 C28         6.2906    3.1130    0.7514 C.3       1 <0>         0.0224
     29 N1          6.5101    5.3360   -3.3173 N.am      1 <0>        -0.3553
     30 N2          7.3084    5.0783   -4.4472 N.3       1 <0>        -0.4320
     31 N3          8.5804    7.4980   -3.1893 N.3       1 <0>        -0.9031
     32 N4         10.5470    7.7366    1.7233 N.3       1 <0>        -0.9068
     33 N5          4.9023    3.4172    3.6938 N.am      1 <0>        -0.5526
     34 N6          5.7762    3.5917   -0.5046 N.am      1 <0>        -0.5576
     35 O1          5.6876    6.9159   -1.8485 O.2       1 <0>        -0.6710
     36 O2          4.2060    1.9080    1.0985 O.2       1 <0>        -0.4901
     37 O3          5.9397    1.3172    3.5213 O.2       1 <0>        -0.5902
     38 O4          7.6924    3.2783   -1.7917 O.2       1 <0>        -0.5833
     39 H1          9.5724   12.7539   -5.9752 H         1 <0>         0.1320
     40 H2         10.3789   11.9573   -3.7685 H         1 <0>         0.1324
     41 H3          7.4591   11.8615   -6.9197 H         1 <0>         0.1328
     42 H4          9.0800   10.2736   -2.5062 H         1 <0>         0.1324
     43 H5          6.1526   10.1776   -5.6655 H         1 <0>         0.1434
     44 H6          5.1909    6.6099    6.6906 H         1 <0>         0.0405
     45 H7          5.1894    7.5520    5.2023 H         1 <0>         0.0421
     46 H8          6.3995    5.7915    4.0058 H         1 <0>         0.0362
     47 H9          7.2733    6.1913    5.4805 H         1 <0>         0.0439
     48 H10         2.9923    6.4314    5.6363 H         1 <0>         0.0350
     49 H11         3.7071    5.9420    4.1041 H         1 <0>         0.0428
     50 H12         7.1325    3.7283    5.1142 H         1 <0>         0.0663
     51 H13         6.3928    4.2285    6.6329 H         1 <0>         0.0466
     52 H14         3.7299    4.3778    6.7306 H         1 <0>         0.0493
     53 H15         2.8306    3.9695    5.2715 H         1 <0>         0.0520
     54 H16         4.9736    3.4114   -4.6951 H         1 <0>         0.0915
     55 H17         5.8531    2.1713   -3.7729 H         1 <0>         0.0601
     56 H18         7.8805    7.8879   -5.6555 H         1 <0>         0.0688
     57 H19         6.1391    7.9685   -5.4921 H         1 <0>         0.0630
     58 H20         7.9647    3.0932   -4.3794 H         1 <0>         0.0807
     59 H21         7.0607    3.4497   -5.8523 H         1 <0>         0.0380
     60 H22         5.8545    5.7643   -5.8276 H         1 <0>         0.0484
     61 H23         7.5124    5.7838   -6.4252 H         1 <0>         0.0697
     62 H24         4.7698    4.4250   -2.5496 H         1 <0>         0.0843
     63 H25         4.9246    2.5862    5.5734 H         1 <0>         0.0831
     64 H26         6.8700    9.2469   -2.1701 H         1 <0>         0.0704
     65 H27         5.6795    9.2080   -3.4549 H         1 <0>         0.0718
     66 H28         7.6494    5.4516   -0.0948 H         1 <0>         0.0606
     67 H29         8.8216    4.2418    0.4157 H         1 <0>         0.0458
     68 H30         8.0356    6.7709    1.9287 H         1 <0>         0.0375
     69 H31         9.1825    5.5824    2.5383 H         1 <0>         0.0392
     70 H32         6.2171    4.9575    1.8728 H         1 <0>         0.0606
     71 H33         7.3929    3.7874    2.4660 H         1 <0>         0.0579
     72 H34         9.5108    7.2416   -0.0285 H         1 <0>         0.0571
     73 H35        10.6706    6.0303    0.5375 H         1 <0>         0.0503
     74 H36         7.0421    2.3587    0.4881 H         1 <0>         0.0993
     75 H37         9.1142    6.7979   -3.6499 H         1 <0>         0.3700
     76 H38         8.8693    7.9327   -2.3437 H         1 <0>         0.3660
     77 H39        11.2163    8.3531    1.3147 H         1 <0>         0.3465
     78 H40        10.4498    7.6340    2.7108 H         1 <0>         0.3446
     79 H41         4.4757    4.1496    3.1342 H         1 <0>         0.3148
     80 H42         4.8120    3.9176   -0.5391 H         1 <0>         0.3220
@<TRIPOS>BOND
     1    1    2 ar
     2    1    3 ar
     3    2    4 ar
     4    3    5 ar
     5    4    6 ar
     6    5    6 ar
     7    6   23 1
     8    7   22 1
     9    7   29 am
    10    7   35 2
    11    8    9 1
    12    8   28 1
    13    8   36 2
    14    9   33 am
    15    9   37 2
    16   10   20 1
    17   10   34 am
    18   10   38 2
    19   11   12 1
    20   11   13 1
    21   12   14 1
    22   13   15 1
    23   14   21 1
    24   15   21 1
    25   16   18 1
    26   16   20 1
    27   17   19 1
    28   17   22 1
    29   18   30 1
    30   19   30 1
    31   20   29 1
    32   21   33 1
    33   22   23 1
    34   22   31 1
    35   24   25 1
    36   24   26 1
    37   25   27 1
    38   26   28 1
    39   27   32 1
    40   28   34 1
    41   29   30 1
    42    1   39 1
    43    2   40 1
    44    3   41 1
    45    4   42 1
    46    5   43 1
    47   11   44 1
    48   11   45 1
    49   12   46 1
    50   12   47 1
    51   13   48 1
    52   13   49 1
    53   14   50 1
    54   14   51 1
    55   15   52 1
    56   15   53 1
    57   16   54 1
    58   16   55 1
    59   17   56 1
    60   17   57 1
    61   18   58 1
    62   18   59 1
    63   19   60 1
    64   19   61 1
    65   20   62 1
    66   21   63 1
    67   23   64 1
    68   23   65 1
    69   24   66 1
    70   24   67 1
    71   25   68 1
    72   25   69 1
    73   26   70 1
    74   26   71 1
    75   27   72 1
    76   27   73 1
    77   28   74 1
    78   31   75 1
    79   31   76 1
    80   32   77 1
    81   32   78 1
    82   33   79 1
    83   34   80 1
@<TRIPOS>MOLECULE
1a46_ligand_209
   80    83     0     0     0
SMALL
USER_CHARGES

mmff94s_NoEstat = 85.26
@<TRIPOS>ATOM
      1 C1          5.9504   -1.3642  -10.1903 C.ar      1 <0>        -0.1300
      2 C2          6.6765   -1.8241   -9.0918 C.ar      1 <0>        -0.1323
      3 C3          5.5463   -0.0305  -10.2504 C.ar      1 <0>        -0.1309
      4 C4          6.9984   -0.9504   -8.0532 C.ar      1 <0>        -0.1275
      5 C5          5.8681    0.8432   -9.2119 C.ar      1 <0>        -0.1272
      6 C6          6.5921    0.3776   -8.1201 C.ar      1 <0>        -0.0843
      7 C7          6.1974    2.2868   -4.7798 C.2       1 <0>         0.6709
      8 C8          5.2358    2.3798    1.5634 C.2       1 <0>         0.4867
      9 C9          5.6522    1.1980    2.3894 C.2       1 <0>         0.5883
     10 C10         5.7098    2.8119   -1.6475 C.2       1 <0>         0.6572
     11 C11         2.8569    0.0394    6.2934 C.3       1 <0>        -0.0802
     12 C12         4.1514    0.8426    6.1981 C.3       1 <0>        -0.0765
     13 C13         2.3812   -0.4389    4.9242 C.3       1 <0>        -0.0774
     14 C14         5.2417    0.0671    5.4575 C.3       1 <0>        -0.0953
     15 C15         3.4756   -1.2117    4.1867 C.3       1 <0>        -0.0906
     16 C16         3.6723    3.8570   -2.6681 C.3       1 <0>        -0.0871
     17 C17         4.4858    1.7161   -6.5463 C.3       1 <0>        -0.0716
     18 C18         2.9535    2.6133   -3.1875 C.3       1 <0>         0.1333
     19 C19         3.4659    2.2898   -5.5476 C.3       1 <0>         0.1246
     20 C20         5.1372    3.5153   -2.8394 C.3       1 <0>         0.0606
     21 C21         4.7887   -0.4252    4.0765 C.3       1 <0>         0.1012
     22 C22         5.8481    1.3265   -5.9256 C.3       1 <0>         0.1554
     23 C23         6.9383    1.3175   -7.0029 C.3       1 <0>        -0.0356
     24 C24         7.6485    3.7409    2.8432 C.3       1 <0>        -0.0795
     25 C25         8.2774    4.8743    3.6620 C.3       1 <0>        -0.1203
     26 C26         6.9719    4.2276    1.5544 C.3       1 <0>        -0.0920
     27 C27         8.9284    4.3945    4.9589 C.3       1 <0>         0.1502
     28 C28         6.2906    3.1130    0.7514 C.3       1 <0>         0.0224
     29 N1          5.1345    2.5635   -3.9339 N.am      1 <0>        -0.3553
     30 N2          3.8653    2.0037   -4.1710 N.3       1 <0>        -0.4320
     31 N3          5.7803   -0.0123   -5.3216 N.3       1 <0>        -0.9031
     32 N4          9.4866    5.5266    5.6910 N.3       1 <0>        -0.9068
     33 N5          4.6259    0.7077    3.1628 N.am      1 <0>        -0.5526
     34 N6          5.7762    3.5917   -0.5046 N.am      1 <0>        -0.5576
     35 O1          7.3278    2.7504   -4.6301 O.2       1 <0>        -0.6710
     36 O2          4.0675    2.7325    1.6631 O.2       1 <0>        -0.4901
     37 O3          6.8111    0.8244    2.3100 O.2       1 <0>        -0.5902
     38 O4          6.0670    1.6440   -1.7490 O.2       1 <0>        -0.5833
     39 H1          5.6997   -2.0446  -10.9989 H         1 <0>         0.1320
     40 H2          6.9911   -2.8626   -9.0451 H         1 <0>         0.1324
     41 H3          4.9808    0.3274  -11.1059 H         1 <0>         0.1328
     42 H4          7.5644   -1.3176   -7.2012 H         1 <0>         0.1324
     43 H5          5.5489    1.8806   -9.2673 H         1 <0>         0.1434
     44 H6          3.0162   -0.8286    6.9451 H         1 <0>         0.0405
     45 H7          2.0772    0.6503    6.7622 H         1 <0>         0.0421
     46 H8          3.9561    1.7911    5.6834 H         1 <0>         0.0362
     47 H9          4.5014    1.0954    7.2055 H         1 <0>         0.0439
     48 H10         1.4988   -1.0776    5.0444 H         1 <0>         0.0350
     49 H11         2.0681    0.4241    4.3241 H         1 <0>         0.0428
     50 H12         6.1309    0.7014    5.3588 H         1 <0>         0.0663
     51 H13         5.5348   -0.7986    6.0650 H         1 <0>         0.0466
     52 H14         3.6672   -2.1509    4.7211 H         1 <0>         0.0493
     53 H15         3.1137   -1.4830    3.1876 H         1 <0>         0.0520
     54 H16         3.4181    4.7133   -3.3051 H         1 <0>         0.0915
     55 H17         3.3944    4.0971   -1.6373 H         1 <0>         0.0601
     56 H18         4.0497    0.8441   -7.0524 H         1 <0>         0.0688
     57 H19         4.6431    2.4675   -7.3320 H         1 <0>         0.0630
     58 H20         2.8170    1.9026   -2.3635 H         1 <0>         0.0807
     59 H21         1.9588    2.8453   -3.5837 H         1 <0>         0.0380
     60 H22         3.3744    3.3723   -5.7123 H         1 <0>         0.0484
     61 H23         2.4818    1.8533   -5.7569 H         1 <0>         0.0697
     62 H24         5.7646    4.3810   -3.0694 H         1 <0>         0.0843
     63 H25         5.5651   -1.0584    3.6346 H         1 <0>         0.0831
     64 H26         7.8868    1.0311   -6.5450 H         1 <0>         0.0704
     65 H27         7.0672    2.3317   -7.3854 H         1 <0>         0.0718
     66 H28         8.4445    3.0306    2.5915 H         1 <0>         0.0606
     67 H29         6.9275    3.2007    3.4679 H         1 <0>         0.0458
     68 H30         9.0354    5.3625    3.0356 H         1 <0>         0.0375
     69 H31         7.5157    5.6329    3.8824 H         1 <0>         0.0392
     70 H32         7.7210    4.7221    0.9235 H         1 <0>         0.0606
     71 H33         6.2174    4.9831    1.8035 H         1 <0>         0.0579
     72 H34         9.7251    3.6753    4.7403 H         1 <0>         0.0571
     73 H35         8.1937    3.8977    5.5994 H         1 <0>         0.0503
     74 H36         7.0421    2.3587    0.4881 H         1 <0>         0.0993
     75 H37         4.9287   -0.2795   -4.8849 H         1 <0>         0.3700
     76 H38         6.6336   -0.5056   -5.1950 H         1 <0>         0.3660
     77 H39        10.0430    5.3371    6.4969 H         1 <0>         0.3465
     78 H40         9.1331    6.4373    5.4892 H         1 <0>         0.3446
     79 H41         3.7145    1.1511    3.0972 H         1 <0>         0.3148
     80 H42         5.4441    4.5531   -0.5557 H         1 <0>         0.3220
@<TRIPOS>BOND
     1    1    2 ar
     2    1    3 ar
     3    2    4 ar
     4    3    5 ar
     5    4    6 ar
     6    5    6 ar
     7    6   23 1
     8    7   22 1
     9    7   29 am
    10    7   35 2
    11    8    9 1
    12    8   28 1
    13    8   36 2
    14    9   33 am
    15    9   37 2
    16   10   20 1
    17   10   34 am
    18   10   38 2
    19   11   12 1
    20   11   13 1
    21   12   14 1
    22   13   15 1
    23   14   21 1
    24   15   21 1
    25   16   18 1
    26   16   20 1
    27   17   19 1
    28   17   22 1
    29   18   30 1
    30   19   30 1
    31   20   29 1
    32   21   33 1
    33   22   23 1
    34   22   31 1
    35   24   25 1
    36   24   26 1
    37   25   27 1
    38   26   28 1
    39   27   32 1
    40   28   34 1
    41   29   30 1
    42    1   39 1
    43    2   40 1
    44    3   41 1
    45    4   42 1
    46    5   43 1
    47   11   44 1
    48   11   45 1
    49   12   46 1
    50   12   47 1
    51   13   48 1
    52   13   49 1
    53   14   50 1
    54   14   51 1
    55   15   52 1
    56   15   53 1
    57   16   54 1
    58   16   55 1
    59   17   56 1
    60   17   57 1
    61   18   58 1
    62   18   59 1
    63   19   60 1
    64   19   61 1
    65   20   62 1
    66   21   63 1
    67   23   64 1
    68   23   65 1
    69   24   66 1
    70   24   67 1
    71   25   68 1
    72   25   69 1
    73   26   70 1
    74   26   71 1
    75   27   72 1
    76   27   73 1
    77   28   74 1
    78   31   75 1
    79   31   76 1
    80   32   77 1
    81   32   78 1
    82   33   79 1
    83   34   80 1
@<TRIPOS>MOLECULE
1a46_ligand_210
   80    83     0     0     0
SMALL
USER_CHARGES

mmff94s_NoEstat = 85.29
@<TRIPOS>ATOM
      1 C1         -5.4583    1.6892    1.2611 C.ar      1 <0>        -0.1300
      2 C2         -4.0943    1.9775    1.3072 C.ar      1 <0>        -0.1323
      3 C3         -6.0294    1.2046    0.0844 C.ar      1 <0>        -0.1309
      4 C4         -3.3015    1.7813    0.1765 C.ar      1 <0>        -0.1275
      5 C5         -5.2365    1.0084   -1.0463 C.ar      1 <0>        -0.1272
      6 C6         -3.8777    1.2980   -0.9929 C.ar      1 <0>        -0.0843
      7 C7         -2.1058    2.1365   -4.3268 C.2       1 <0>         0.6709
      8 C8          2.7796    3.2097   -6.1637 C.2       1 <0>         0.4867
      9 C9          3.9990    3.9872   -5.7623 C.2       1 <0>         0.5883
     10 C10        -0.2772    3.6966   -6.4593 C.2       1 <0>         0.6572
     11 C11         9.3850    3.6101   -5.5083 C.3       1 <0>        -0.0802
     12 C12         8.4401    3.8908   -4.3433 C.3       1 <0>        -0.0765
     13 C13         8.8474    4.1778   -6.8189 C.3       1 <0>        -0.0774
     14 C14         7.0253    3.3919   -4.6323 C.3       1 <0>        -0.0953
     15 C15         7.4334    3.6786   -7.1110 C.3       1 <0>        -0.0906
     16 C16        -2.5724    4.0198   -7.4149 C.3       1 <0>        -0.0871
     17 C17        -4.4075    2.7624   -3.4988 C.3       1 <0>        -0.0716
     18 C18        -3.1842    4.9407   -6.3611 C.3       1 <0>         0.1333
     19 C19        -4.4794    3.6268   -4.7694 C.3       1 <0>         0.1246
     20 C20        -1.6533    3.1250   -6.6108 C.3       1 <0>         0.0606
     21 C21         6.4852    3.9734   -5.9435 C.3       1 <0>         0.1012
     22 C22        -2.9774    2.3470   -3.0806 C.3       1 <0>         0.1554
     23 C23        -3.0248    1.0870   -2.2092 C.3       1 <0>        -0.0356
     24 C24         1.4445    5.5921   -8.9731 C.3       1 <0>        -0.0795
     25 C25         1.6370    7.0835   -9.2718 C.3       1 <0>        -0.1203
     26 C26         2.1570    5.1335   -7.6933 C.3       1 <0>        -0.0920
     27 C27         0.9502    7.5360  -10.5601 C.3       1 <0>         0.1502
     28 C28         2.0196    3.6328   -7.4097 C.3       1 <0>         0.0224
     29 N1         -2.2587    3.1191   -5.2927 N.am      1 <0>        -0.3553
     30 N2         -3.1666    4.1772   -5.1014 N.3       1 <0>        -0.4320
     31 N3         -2.3282    3.4194   -2.3125 N.3       1 <0>        -0.9031
     32 N4          1.1922    8.9569  -10.7874 N.3       1 <0>        -0.9068
     33 N5          5.1626    3.4185   -6.2254 N.am      1 <0>        -0.5526
     34 N6          0.6426    3.2153   -7.3763 N.am      1 <0>        -0.5576
     35 O1         -1.3346    1.1836   -4.4382 O.2       1 <0>        -0.6710
     36 O2          2.4233    2.3196   -5.4021 O.2       1 <0>        -0.4901
     37 O3          3.8414    4.9860   -5.0794 O.2       1 <0>        -0.5902
     38 O4         -0.0579    4.5177   -5.5765 O.2       1 <0>        -0.5833
     39 H1         -6.0757    1.8420    2.1415 H         1 <0>         0.1320
     40 H2         -3.6498    2.3548    2.2235 H         1 <0>         0.1324
     41 H3         -7.0914    0.9803    0.0486 H         1 <0>         0.1328
     42 H4         -2.2397    2.0087    0.2217 H         1 <0>         0.1324
     43 H5         -5.6902    0.6306   -1.9588 H         1 <0>         0.1434
     44 H6         10.3699    4.0410   -5.2964 H         1 <0>         0.0405
     45 H7          9.5247    2.5269   -5.6109 H         1 <0>         0.0421
     46 H8          8.8217    3.4105   -3.4353 H         1 <0>         0.0362
     47 H9          8.4124    4.9697   -4.1470 H         1 <0>         0.0439
     48 H10         8.8437    5.2736   -6.7687 H         1 <0>         0.0350
     49 H11         9.5141    3.8981   -7.6424 H         1 <0>         0.0428
     50 H12         7.0287    2.2950   -4.6816 H         1 <0>         0.0663
     51 H13         6.3626    3.6628   -3.8014 H         1 <0>         0.0466
     52 H14         7.0582    4.1516   -8.0267 H         1 <0>         0.0493
     53 H15         7.4614    2.5988   -7.3082 H         1 <0>         0.0520
     54 H16        -3.3663    3.4156   -7.8711 H         1 <0>         0.0915
     55 H17        -2.0619    4.5764   -8.2068 H         1 <0>         0.0601
     56 H18        -4.8936    3.2931   -2.6688 H         1 <0>         0.0688
     57 H19        -5.0141    1.8630   -3.6718 H         1 <0>         0.0630
     58 H20        -2.5442    5.8221   -6.2340 H         1 <0>         0.0807
     59 H21        -4.1773    5.3004   -6.6521 H         1 <0>         0.0380
     60 H22        -4.8688    3.0160   -5.5957 H         1 <0>         0.0484
     61 H23        -5.2012    4.4361   -4.6064 H         1 <0>         0.0697
     62 H24        -1.5686    2.1110   -7.0119 H         1 <0>         0.0843
     63 H25         6.3486    5.0561   -5.8408 H         1 <0>         0.0831
     64 H26        -2.0076    0.8185   -1.9185 H         1 <0>         0.0704
     65 H27        -3.4109    0.2580   -2.8052 H         1 <0>         0.0718
     66 H28         0.3683    5.4079   -8.8774 H         1 <0>         0.0606
     67 H29         1.7918    5.0040   -9.8306 H         1 <0>         0.0458
     68 H30         1.2300    7.6523   -8.4256 H         1 <0>         0.0375
     69 H31         2.7093    7.3123   -9.3176 H         1 <0>         0.0392
     70 H32         1.7604    5.7005   -6.8419 H         1 <0>         0.0606
     71 H33         3.2243    5.3739   -7.7660 H         1 <0>         0.0579
     72 H34        -0.1287    7.3572  -10.4981 H         1 <0>         0.0571
     73 H35         1.3345    6.9786  -11.4193 H         1 <0>         0.0503
     74 H36         2.4714    3.0747   -8.2388 H         1 <0>         0.0993
     75 H37        -2.5295    4.3581   -2.5686 H         1 <0>         0.3700
     76 H38        -1.5729    3.1690   -1.7173 H         1 <0>         0.3660
     77 H39         0.7014    9.4044  -11.5317 H         1 <0>         0.3465
     78 H40         1.9755    9.3785  -10.3359 H         1 <0>         0.3446
     79 H41         5.1001    2.5754   -6.7883 H         1 <0>         0.3148
     80 H42         0.3285    2.5310   -8.0620 H         1 <0>         0.3220
@<TRIPOS>BOND
     1    1    2 ar
     2    1    3 ar
     3    2    4 ar
     4    3    5 ar
     5    4    6 ar
     6    5    6 ar
     7    6   23 1
     8    7   22 1
     9    7   29 am
    10    7   35 2
    11    8    9 1
    12    8   28 1
    13    8   36 2
    14    9   33 am
    15    9   37 2
    16   10   20 1
    17   10   34 am
    18   10   38 2
    19   11   12 1
    20   11   13 1
    21   12   14 1
    22   13   15 1
    23   14   21 1
    24   15   21 1
    25   16   18 1
    26   16   20 1
    27   17   19 1
    28   17   22 1
    29   18   30 1
    30   19   30 1
    31   20   29 1
    32   21   33 1
    33   22   23 1
    34   22   31 1
    35   24   25 1
    36   24   26 1
    37   25   27 1
    38   26   28 1
    39   27   32 1
    40   28   34 1
    41   29   30 1
    42    1   39 1
    43    2   40 1
    44    3   41 1
    45    4   42 1
    46    5   43 1
    47   11   44 1
    48   11   45 1
    49   12   46 1
    50   12   47 1
    51   13   48 1
    52   13   49 1
    53   14   50 1
    54   14   51 1
    55   15   52 1
    56   15   53 1
    57   16   54 1
    58   16   55 1
    59   17   56 1
    60   17   57 1
    61   18   58 1
    62   18   59 1
    63   19   60 1
    64   19   61 1
    65   20   62 1
    66   21   63 1
    67   23   64 1
    68   23   65 1
    69   24   66 1
    70   24   67 1
    71   25   68 1
    72   25   69 1
    73   26   70 1
    74   26   71 1
    75   27   72 1
    76   27   73 1
    77   28   74 1
    78   31   75 1
    79   31   76 1
    80   32   77 1
    81   32   78 1
    82   33   79 1
    83   34   80 1
@<TRIPOS>MOLECULE
1a46_ligand_211
   80    83     0     0     0
SMALL
USER_CHARGES

mmff94s_NoEstat = 85.32
@<TRIPOS>ATOM
      1 C1         11.1945    5.3647   -9.7731 C.ar      1 <0>        -0.1300
      2 C2         11.8337    5.1154   -8.5586 C.ar      1 <0>        -0.1323
      3 C3          9.8873    5.8513   -9.7863 C.ar      1 <0>        -0.1309
      4 C4         11.1656    5.3526   -7.3573 C.ar      1 <0>        -0.1275
      5 C5          9.2192    6.0884   -8.5850 C.ar      1 <0>        -0.1272
      6 C6          9.8628    5.8375   -7.3783 C.ar      1 <0>        -0.0843
      7 C7          7.6425    5.1042   -4.2977 C.2       1 <0>         0.6709
      8 C8          5.2358    2.3798    1.5634 C.2       1 <0>         0.4867
      9 C9          5.6522    1.1980    2.3894 C.2       1 <0>         0.5883
     10 C10         6.5256    3.6321   -1.6689 C.2       1 <0>         0.6572
     11 C11         2.8569    0.0394    6.2934 C.3       1 <0>        -0.0802
     12 C12         4.1514    0.8426    6.1981 C.3       1 <0>        -0.0765
     13 C13         2.3812   -0.4389    4.9242 C.3       1 <0>        -0.0774
     14 C14         5.2417    0.0671    5.4575 C.3       1 <0>        -0.0953
     15 C15         3.4756   -1.2117    4.1867 C.3       1 <0>        -0.0906
     16 C16         4.6595    3.2577   -3.3009 C.3       1 <0>        -0.0871
     17 C17         7.3760    4.3986   -6.7074 C.3       1 <0>        -0.0716
     18 C18         5.3367    2.3027   -4.2819 C.3       1 <0>         0.1333
     19 C19         6.2012    3.5529   -6.1864 C.3       1 <0>         0.1246
     20 C20         5.7868    4.1659   -2.8575 C.3       1 <0>         0.0606
     21 C21         4.7887   -0.4252    4.0765 C.3       1 <0>         0.1012
     22 C22         8.3797    4.8486   -5.6198 C.3       1 <0>         0.1554
     23 C23         9.1441    6.0926   -6.0861 C.3       1 <0>        -0.0356
     24 C24         7.6485    3.7409    2.8432 C.3       1 <0>        -0.0795
     25 C25         8.2774    4.8743    3.6620 C.3       1 <0>        -0.1203
     26 C26         6.9719    4.2276    1.5544 C.3       1 <0>        -0.0920
     27 C27         8.9284    4.3945    4.9589 C.3       1 <0>         0.1502
     28 C28         6.2906    3.1130    0.7514 C.3       1 <0>         0.0224
     29 N1          6.7058    4.1331   -3.9791 N.am      1 <0>        -0.3553
     30 N2          6.4777    3.0462   -4.8435 N.3       1 <0>        -0.4320
     31 N3          9.3531    3.7833   -5.3380 N.3       1 <0>        -0.9031
     32 N4          9.4866    5.5266    5.6910 N.3       1 <0>        -0.9068
     33 N5          4.6259    0.7077    3.1628 N.am      1 <0>        -0.5526
     34 N6          5.7762    3.5917   -0.5046 N.am      1 <0>        -0.5576
     35 O1          7.8821    6.0807   -3.5877 O.2       1 <0>        -0.6710
     36 O2          4.0675    2.7325    1.6631 O.2       1 <0>        -0.4901
     37 O3          6.8111    0.8244    2.3100 O.2       1 <0>        -0.5902
     38 O4          7.6924    3.2783   -1.7917 O.2       1 <0>        -0.5833
     39 H1         11.7147    5.1800  -10.7084 H         1 <0>         0.1320
     40 H2         12.8515    4.7366   -8.5485 H         1 <0>         0.1324
     41 H3          9.3897    6.0452  -10.7320 H         1 <0>         0.1328
     42 H4         11.6716    5.1554   -6.4159 H         1 <0>         0.1324
     43 H5          8.2009    6.4675   -8.6050 H         1 <0>         0.1434
     44 H6          3.0162   -0.8286    6.9451 H         1 <0>         0.0405
     45 H7          2.0772    0.6503    6.7622 H         1 <0>         0.0421
     46 H8          3.9561    1.7911    5.6834 H         1 <0>         0.0362
     47 H9          4.5014    1.0954    7.2055 H         1 <0>         0.0439
     48 H10         1.4988   -1.0776    5.0444 H         1 <0>         0.0350
     49 H11         2.0681    0.4241    4.3241 H         1 <0>         0.0428
     50 H12         6.1309    0.7014    5.3588 H         1 <0>         0.0663
     51 H13         5.5348   -0.7986    6.0650 H         1 <0>         0.0466
     52 H14         3.6672   -2.1509    4.7211 H         1 <0>         0.0493
     53 H15         3.1137   -1.4830    3.1876 H         1 <0>         0.0520
     54 H16         3.9023    3.8458   -3.8340 H         1 <0>         0.0915
     55 H17         4.1709    2.7289   -2.4768 H         1 <0>         0.0601
     56 H18         7.9078    3.8408   -7.4902 H         1 <0>         0.0688
     57 H19         6.9559    5.2827   -7.2061 H         1 <0>         0.0630
     58 H20         5.7303    1.4383   -3.7336 H         1 <0>         0.0807
     59 H21         4.6390    1.9190   -5.0344 H         1 <0>         0.0380
     60 H22         5.2889    4.1652   -6.1941 H         1 <0>         0.0484
     61 H23         6.0298    2.7205   -6.8794 H         1 <0>         0.0697
     62 H24         5.4651    5.1881   -2.6391 H         1 <0>         0.0843
     63 H25         5.5651   -1.0584    3.6346 H         1 <0>         0.0831
     64 H26         9.8520    6.3858   -5.3087 H         1 <0>         0.0704
     65 H27         8.4405    6.9195   -6.1990 H         1 <0>         0.0718
     66 H28         8.4445    3.0306    2.5915 H         1 <0>         0.0606
     67 H29         6.9275    3.2007    3.4679 H         1 <0>         0.0458
     68 H30         9.0354    5.3625    3.0356 H         1 <0>         0.0375
     69 H31         7.5157    5.6329    3.8824 H         1 <0>         0.0392
     70 H32         7.7210    4.7221    0.9235 H         1 <0>         0.0606
     71 H33         6.2174    4.9831    1.8035 H         1 <0>         0.0579
     72 H34         9.7251    3.6753    4.7403 H         1 <0>         0.0571
     73 H35         8.1937    3.8977    5.5994 H         1 <0>         0.0503
     74 H36         7.0421    2.3587    0.4881 H         1 <0>         0.0993
     75 H37         9.0331    2.8434   -5.3754 H         1 <0>         0.3700
     76 H38        10.2196    4.0460   -4.9287 H         1 <0>         0.3660
     77 H39        10.0430    5.3371    6.4969 H         1 <0>         0.3465
     78 H40         9.1331    6.4373    5.4892 H         1 <0>         0.3446
     79 H41         3.7145    1.1511    3.0972 H         1 <0>         0.3148
     80 H42         4.8120    3.9176   -0.5391 H         1 <0>         0.3220
@<TRIPOS>BOND
     1    1    2 ar
     2    1    3 ar
     3    2    4 ar
     4    3    5 ar
     5    4    6 ar
     6    5    6 ar
     7    6   23 1
     8    7   22 1
     9    7   29 am
    10    7   35 2
    11    8    9 1
    12    8   28 1
    13    8   36 2
    14    9   33 am
    15    9   37 2
    16   10   20 1
    17   10   34 am
    18   10   38 2
    19   11   12 1
    20   11   13 1
    21   12   14 1
    22   13   15 1
    23   14   21 1
    24   15   21 1
    25   16   18 1
    26   16   20 1
    27   17   19 1
    28   17   22 1
    29   18   30 1
    30   19   30 1
    31   20   29 1
    32   21   33 1
    33   22   23 1
    34   22   31 1
    35   24   25 1
    36   24   26 1
    37   25   27 1
    38   26   28 1
    39   27   32 1
    40   28   34 1
    41   29   30 1
    42    1   39 1
    43    2   40 1
    44    3   41 1
    45    4   42 1
    46    5   43 1
    47   11   44 1
    48   11   45 1
    49   12   46 1
    50   12   47 1
    51   13   48 1
    52   13   49 1
    53   14   50 1
    54   14   51 1
    55   15   52 1
    56   15   53 1
    57   16   54 1
    58   16   55 1
    59   17   56 1
    60   17   57 1
    61   18   58 1
    62   18   59 1
    63   19   60 1
    64   19   61 1
    65   20   62 1
    66   21   63 1
    67   23   64 1
    68   23   65 1
    69   24   66 1
    70   24   67 1
    71   25   68 1
    72   25   69 1
    73   26   70 1
    74   26   71 1
    75   27   72 1
    76   27   73 1
    77   28   74 1
    78   31   75 1
    79   31   76 1
    80   32   77 1
    81   32   78 1
    82   33   79 1
    83   34   80 1
@<TRIPOS>MOLECULE
1a46_ligand_212
   80    83     0     0     0
SMALL
USER_CHARGES

mmff94s_NoEstat = 85.39
@<TRIPOS>ATOM
      1 C1         -4.4072   -3.0319  -14.4211 C.ar      1 <0>        -0.1300
      2 C2         -3.1014   -2.5683  -14.5810 C.ar      1 <0>        -0.1323
      3 C3         -5.2666   -2.3997  -13.5224 C.ar      1 <0>        -0.1309
      4 C4         -2.6549   -1.4727  -13.8421 C.ar      1 <0>        -0.1275
      5 C5         -4.8200   -1.3041  -12.7835 C.ar      1 <0>        -0.1272
      6 C6         -3.5171   -0.8478  -12.9482 C.ar      1 <0>        -0.0843
      7 C7         -1.9267    1.0916  -10.0042 C.2       1 <0>         0.6709
      8 C8          2.7796    3.2097   -6.1637 C.2       1 <0>         0.4867
      9 C9          4.2189    2.8058   -6.2975 C.2       1 <0>         0.5883
     10 C10         0.2181    1.9581   -7.7739 C.2       1 <0>         0.6572
     11 C11         8.7390    2.1665   -3.4036 C.3       1 <0>        -0.0802
     12 C12         8.5586    3.0794   -4.6132 C.3       1 <0>        -0.0765
     13 C13         7.8654    0.9193   -3.5041 C.3       1 <0>        -0.0774
     14 C14         7.0903    3.4392   -4.8337 C.3       1 <0>        -0.0953
     15 C15         6.3962    1.2768   -3.7226 C.3       1 <0>        -0.0906
     16 C16        -1.6423    1.0361   -6.3687 C.3       1 <0>        -0.0871
     17 C17        -3.4475   -0.9240   -9.9997 C.3       1 <0>        -0.0716
     18 C18        -1.5606   -0.4439   -6.7372 C.3       1 <0>         0.1333
     19 C19        -3.1819   -0.9495   -8.4846 C.3       1 <0>         0.1246
     20 C20        -1.2590    1.7411   -7.6524 C.3       1 <0>         0.0606
     21 C21         6.2184    2.1837   -4.9453 C.3       1 <0>         0.1012
     22 C22        -2.4199   -0.1108  -10.8216 C.3       1 <0>         0.1554
     23 C23        -3.0368    0.3307  -12.1535 C.3       1 <0>        -0.0356
     24 C24         1.5857    6.0302   -6.5865 C.3       1 <0>        -0.0795
     25 C25         1.6811    7.5259   -6.9095 C.3       1 <0>        -0.1203
     26 C26         2.1570    5.1335   -7.6933 C.3       1 <0>        -0.0920
     27 C27         1.0885    8.4192   -5.8200 C.3       1 <0>         0.1502
     28 C28         2.0196    3.6328   -7.4097 C.3       1 <0>         0.0224
     29 N1         -1.6352    0.7917   -8.6825 N.am      1 <0>        -0.3553
     30 N2         -1.8196   -0.5121   -8.1858 N.3       1 <0>        -0.4320
     31 N3         -1.2259   -0.9195  -11.1076 N.3       1 <0>        -0.9031
     32 N4          1.8018    8.2205   -4.5627 N.3       1 <0>        -0.9068
     33 N5          4.8139    2.5648   -5.0811 N.am      1 <0>        -0.5526
     34 N6          0.6426    3.2153   -7.3763 N.am      1 <0>        -0.5576
     35 O1         -1.7935    2.2123  -10.4955 O.2       1 <0>        -0.6710
     36 O2          2.3266    3.2509   -5.0269 O.2       1 <0>        -0.4901
     37 O3          4.6970    2.7561   -7.4190 O.2       1 <0>        -0.5902
     38 O4          0.9290    1.0536   -8.1959 O.2       1 <0>        -0.5833
     39 H1         -4.7549   -3.8850  -14.9963 H         1 <0>         0.1320
     40 H2         -2.4324   -3.0606  -15.2808 H         1 <0>         0.1324
     41 H3         -6.2832   -2.7609  -13.3979 H         1 <0>         0.1328
     42 H4         -1.6358   -1.1186  -13.9733 H         1 <0>         0.1324
     43 H5         -5.4966   -0.8180  -12.0857 H         1 <0>         0.1434
     44 H6          9.7913    1.8735   -3.3164 H         1 <0>         0.0405
     45 H7          8.4833    2.7176   -2.4903 H         1 <0>         0.0421
     46 H8          9.1455    3.9945   -4.4750 H         1 <0>         0.0362
     47 H9          8.9496    2.5810   -5.5087 H         1 <0>         0.0439
     48 H10         8.2153    0.2934   -4.3342 H         1 <0>         0.0350
     49 H11         7.9674    0.3236   -2.5899 H         1 <0>         0.0428
     50 H12         6.7403    4.0666   -4.0033 H         1 <0>         0.0663
     51 H13         6.9925    4.0452   -5.7427 H         1 <0>         0.0466
     52 H14         5.8092    0.3589   -3.8487 H         1 <0>         0.0493
     53 H15         6.0049    1.7750   -2.8258 H         1 <0>         0.0520
     54 H16        -2.6779    1.2865   -6.1074 H         1 <0>         0.0915
     55 H17        -0.9998    1.2887   -5.5196 H         1 <0>         0.0601
     56 H18        -3.4897   -1.9539  -10.3797 H         1 <0>         0.0688
     57 H19        -4.4523   -0.5086  -10.1558 H         1 <0>         0.0630
     58 H20        -0.5419   -0.8072   -6.5560 H         1 <0>         0.0807
     59 H21        -2.2364   -1.0589   -6.1327 H         1 <0>         0.0380
     60 H22        -3.9187   -0.3080   -7.9817 H         1 <0>         0.0484
     61 H23        -3.3442   -1.9688   -8.1140 H         1 <0>         0.0697
     62 H24        -1.7661    2.6997   -7.7936 H         1 <0>         0.0843
     63 H25         6.4768    1.6324   -5.8568 H         1 <0>         0.0831
     64 H26        -2.2923    0.8934  -12.7197 H         1 <0>         0.0704
     65 H27        -3.8625    1.0157  -11.9521 H         1 <0>         0.0718
     66 H28         2.1358    5.8550   -5.6547 H         1 <0>         0.0606
     67 H29         0.5392    5.7688   -6.3906 H         1 <0>         0.0458
     68 H30         2.7419    7.7748   -7.0444 H         1 <0>         0.0375
     69 H31         1.1870    7.7255   -7.8687 H         1 <0>         0.0392
     70 H32         3.2164    5.3787   -7.8393 H         1 <0>         0.0606
     71 H33         1.6466    5.3535   -8.6384 H         1 <0>         0.0579
     72 H34         0.0275    8.1885   -5.6755 H         1 <0>         0.0571
     73 H35         1.1682    9.4739   -6.0992 H         1 <0>         0.0503
     74 H36         2.4714    3.0747   -8.2388 H         1 <0>         0.0993
     75 H37        -0.9249   -1.5612  -10.4112 H         1 <0>         0.3700
     76 H38        -0.6609   -0.6518  -11.8799 H         1 <0>         0.3660
     77 H39         1.4387    8.6562   -3.7421 H         1 <0>         0.3465
     78 H40         2.7216    7.8360   -4.5996 H         1 <0>         0.3446
     79 H41         4.2523    2.6558   -4.2398 H         1 <0>         0.3148
     80 H42        -0.0552    3.8781   -7.0434 H         1 <0>         0.3220
@<TRIPOS>BOND
     1    1    2 ar
     2    1    3 ar
     3    2    4 ar
     4    3    5 ar
     5    4    6 ar
     6    5    6 ar
     7    6   23 1
     8    7   22 1
     9    7   29 am
    10    7   35 2
    11    8    9 1
    12    8   28 1
    13    8   36 2
    14    9   33 am
    15    9   37 2
    16   10   20 1
    17   10   34 am
    18   10   38 2
    19   11   12 1
    20   11   13 1
    21   12   14 1
    22   13   15 1
    23   14   21 1
    24   15   21 1
    25   16   18 1
    26   16   20 1
    27   17   19 1
    28   17   22 1
    29   18   30 1
    30   19   30 1
    31   20   29 1
    32   21   33 1
    33   22   23 1
    34   22   31 1
    35   24   25 1
    36   24   26 1
    37   25   27 1
    38   26   28 1
    39   27   32 1
    40   28   34 1
    41   29   30 1
    42    1   39 1
    43    2   40 1
    44    3   41 1
    45    4   42 1
    46    5   43 1
    47   11   44 1
    48   11   45 1
    49   12   46 1
    50   12   47 1
    51   13   48 1
    52   13   49 1
    53   14   50 1
    54   14   51 1
    55   15   52 1
    56   15   53 1
    57   16   54 1
    58   16   55 1
    59   17   56 1
    60   17   57 1
    61   18   58 1
    62   18   59 1
    63   19   60 1
    64   19   61 1
    65   20   62 1
    66   21   63 1
    67   23   64 1
    68   23   65 1
    69   24   66 1
    70   24   67 1
    71   25   68 1
    72   25   69 1
    73   26   70 1
    74   26   71 1
    75   27   72 1
    76   27   73 1
    77   28   74 1
    78   31   75 1
    79   31   76 1
    80   32   77 1
    81   32   78 1
    82   33   79 1
    83   34   80 1
@<TRIPOS>MOLECULE
1a46_ligand_213
   80    83     0     0     0
SMALL
USER_CHARGES

mmff94s_NoEstat = 85.41
@<TRIPOS>ATOM
      1 C1         11.2754    4.8325   -9.0920 C.ar      1 <0>        -0.1300
      2 C2         11.7701    4.4180   -7.8554 C.ar      1 <0>        -0.1323
      3 C3         10.0202    5.4353   -9.1745 C.ar      1 <0>        -0.1309
      4 C4         11.0095    4.6062   -6.7014 C.ar      1 <0>        -0.1275
      5 C5          9.2596    5.6235   -8.0205 C.ar      1 <0>        -0.1272
      6 C6          9.7592    5.2077   -6.7914 C.ar      1 <0>        -0.0843
      7 C7          7.1956    4.4061   -4.0088 C.2       1 <0>         0.6709
      8 C8          5.2358    2.3798    1.5634 C.2       1 <0>         0.4867
      9 C9          3.8230    2.3549    1.0577 C.2       1 <0>         0.5883
     10 C10         5.7098    2.8119   -1.6475 C.2       1 <0>         0.6572
     11 C11         0.1943    2.5042    4.4055 C.3       1 <0>        -0.0802
     12 C12         0.8241    1.3237    3.6709 C.3       1 <0>        -0.0765
     13 C13         0.8490    3.8286    4.0220 C.3       1 <0>        -0.0774
     14 C14         0.8252    1.5389    2.1568 C.3       1 <0>        -0.0953
     15 C15         0.8496    4.0381    2.5071 C.3       1 <0>        -0.0906
     16 C16         3.9879    2.7570   -3.4688 C.3       1 <0>        -0.0871
     17 C17         7.1089    3.9469   -6.4901 C.3       1 <0>        -0.0716
     18 C18         4.6769    1.8362   -4.4740 C.3       1 <0>         0.1333
     19 C19         5.8233    3.1683   -6.1618 C.3       1 <0>         0.1246
     20 C20         5.1372    3.5153   -2.8394 C.3       1 <0>         0.0606
     21 C21         1.4786    2.8646    1.7442 C.3       1 <0>         0.1012
     22 C22         8.0351    4.2042   -5.2782 C.3       1 <0>         0.1554
     23 C23         8.9412    5.4102   -5.5501 C.3       1 <0>        -0.0356
     24 C24         8.0800    4.9598    0.7851 C.3       1 <0>        -0.0795
     25 C25         8.7880    6.0338    1.6192 C.3       1 <0>        -0.1203
     26 C26         6.9719    4.2276    1.5544 C.3       1 <0>        -0.0920
     27 C27         9.9095    6.7454    0.8629 C.3       1 <0>         0.1502
     28 C28         6.2906    3.1130    0.7514 C.3       1 <0>         0.0224
     29 N1          6.1557    3.4998   -3.8720 N.am      1 <0>        -0.3553
     30 N2          5.9246    2.5201   -4.8556 N.3       1 <0>        -0.4320
     31 N3          8.8854    3.0337   -5.0159 N.3       1 <0>        -0.9031
     32 N4         10.5470    7.7366    1.7233 N.3       1 <0>        -0.9068
     33 N5          2.9218    2.8162    1.9889 N.am      1 <0>        -0.5526
     34 N6          5.7762    3.5917   -0.5046 N.am      1 <0>        -0.5576
     35 O1          7.4442    5.2891   -3.1880 O.2       1 <0>        -0.6710
     36 O2          5.4669    1.7271    2.5732 O.2       1 <0>        -0.4901
     37 O3          3.6258    1.9273   -0.0679 O.2       1 <0>        -0.5902
     38 O4          6.0670    1.6440   -1.7490 O.2       1 <0>        -0.5833
     39 H1         11.8675    4.6858   -9.9905 H         1 <0>         0.1320
     40 H2         12.7474    3.9487   -7.7912 H         1 <0>         0.1324
     41 H3          9.6350    5.7578  -10.1374 H         1 <0>         0.1328
     42 H4         11.4031    4.2801   -5.7423 H         1 <0>         0.1324
     43 H5          8.2827    6.0940   -8.0945 H         1 <0>         0.1434
     44 H6         -0.8764    2.5478    4.1705 H         1 <0>         0.0405
     45 H7          0.2765    2.3517    5.4876 H         1 <0>         0.0421
     46 H8          1.8516    1.1783    4.0256 H         1 <0>         0.0362
     47 H9          0.2739    0.4065    3.9103 H         1 <0>         0.0439
     48 H10         0.3166    4.6552    4.5063 H         1 <0>         0.0350
     49 H11         1.8783    3.8505    4.3999 H         1 <0>         0.0428
     50 H12         1.3389    0.6988    1.6740 H         1 <0>         0.0663
     51 H13        -0.2116    1.5264    1.7970 H         1 <0>         0.0466
     52 H14        -0.1857    4.1693    2.1674 H         1 <0>         0.0493
     53 H15         1.3811    4.9684    2.2727 H         1 <0>         0.0520
     54 H16         3.3373    3.4571   -4.0075 H         1 <0>         0.0915
     55 H17         3.3792    2.2031   -2.7476 H         1 <0>         0.0601
     56 H18         7.6671    3.4155   -7.2730 H         1 <0>         0.0688
     57 H19         6.8138    4.9067   -6.9355 H         1 <0>         0.0630
     58 H20         4.9425    0.8939   -3.9800 H         1 <0>         0.0807
     59 H21         4.0270    1.5868   -5.3200 H         1 <0>         0.0380
     60 H22         4.9696    3.8594   -6.1912 H         1 <0>         0.0484
     61 H23         5.6526    2.4206   -6.9455 H         1 <0>         0.0697
     62 H24         4.8809    4.5388   -2.5517 H         1 <0>         0.0843
     63 H25         1.3617    3.0169    0.6661 H         1 <0>         0.0831
     64 H26         9.5913    5.5668   -4.6874 H         1 <0>         0.0704
     65 H27         8.3224    6.3045   -5.6440 H         1 <0>         0.0718
     66 H28         7.6494    5.4516   -0.0948 H         1 <0>         0.0606
     67 H29         8.8216    4.2418    0.4157 H         1 <0>         0.0458
     68 H30         8.0356    6.7709    1.9287 H         1 <0>         0.0375
     69 H31         9.1825    5.5824    2.5383 H         1 <0>         0.0392
     70 H32         6.2171    4.9575    1.8728 H         1 <0>         0.0606
     71 H33         7.3929    3.7874    2.4660 H         1 <0>         0.0579
     72 H34         9.5108    7.2416   -0.0285 H         1 <0>         0.0571
     73 H35        10.6706    6.0303    0.5375 H         1 <0>         0.0503
     74 H36         7.0421    2.3587    0.4881 H         1 <0>         0.0993
     75 H37         8.4943    2.1340   -5.1738 H         1 <0>         0.3700
     76 H38         9.7264    3.1786   -4.5069 H         1 <0>         0.3660
     77 H39        11.2163    8.3531    1.3147 H         1 <0>         0.3465
     78 H40        10.4498    7.6340    2.7108 H         1 <0>         0.3446
     79 H41         3.2728    3.1375    2.8861 H         1 <0>         0.3148
     80 H42         5.4441    4.5531   -0.5557 H         1 <0>         0.3220
@<TRIPOS>BOND
     1    1    2 ar
     2    1    3 ar
     3    2    4 ar
     4    3    5 ar
     5    4    6 ar
     6    5    6 ar
     7    6   23 1
     8    7   22 1
     9    7   29 am
    10    7   35 2
    11    8    9 1
    12    8   28 1
    13    8   36 2
    14    9   33 am
    15    9   37 2
    16   10   20 1
    17   10   34 am
    18   10   38 2
    19   11   12 1
    20   11   13 1
    21   12   14 1
    22   13   15 1
    23   14   21 1
    24   15   21 1
    25   16   18 1
    26   16   20 1
    27   17   19 1
    28   17   22 1
    29   18   30 1
    30   19   30 1
    31   20   29 1
    32   21   33 1
    33   22   23 1
    34   22   31 1
    35   24   25 1
    36   24   26 1
    37   25   27 1
    38   26   28 1
    39   27   32 1
    40   28   34 1
    41   29   30 1
    42    1   39 1
    43    2   40 1
    44    3   41 1
    45    4   42 1
    46    5   43 1
    47   11   44 1
    48   11   45 1
    49   12   46 1
    50   12   47 1
    51   13   48 1
    52   13   49 1
    53   14   50 1
    54   14   51 1
    55   15   52 1
    56   15   53 1
    57   16   54 1
    58   16   55 1
    59   17   56 1
    60   17   57 1
    61   18   58 1
    62   18   59 1
    63   19   60 1
    64   19   61 1
    65   20   62 1
    66   21   63 1
    67   23   64 1
    68   23   65 1
    69   24   66 1
    70   24   67 1
    71   25   68 1
    72   25   69 1
    73   26   70 1
    74   26   71 1
    75   27   72 1
    76   27   73 1
    77   28   74 1
    78   31   75 1
    79   31   76 1
    80   32   77 1
    81   32   78 1
    82   33   79 1
    83   34   80 1
@<TRIPOS>MOLECULE
1a46_ligand_214
   80    83     0     0     0
SMALL
USER_CHARGES

mmff94s_NoEstat = 85.47
@<TRIPOS>ATOM
      1 C1         -6.8775    5.0901  -14.7309 C.ar      1 <0>        -0.1300
      2 C2         -5.5917    5.6294  -14.7709 C.ar      1 <0>        -0.1323
      3 C3         -7.3842    4.5832  -13.5342 C.ar      1 <0>        -0.1309
      4 C4         -4.8126    5.6616  -13.6144 C.ar      1 <0>        -0.1275
      5 C5         -6.6051    4.6154  -12.3777 C.ar      1 <0>        -0.1272
      6 C6         -5.3244    5.1544  -12.4253 C.ar      1 <0>        -0.0843
      7 C7         -2.7863    3.9453   -9.7694 C.2       1 <0>         0.6709
      8 C8          2.7796    3.2097   -6.1637 C.2       1 <0>         0.4867
      9 C9          4.2189    2.8058   -6.2975 C.2       1 <0>         0.5883
     10 C10        -0.0591    2.8141   -8.5012 C.2       1 <0>         0.6572
     11 C11         8.7390    2.1665   -3.4036 C.3       1 <0>        -0.0802
     12 C12         8.5586    3.0794   -4.6132 C.3       1 <0>        -0.0765
     13 C13         7.8654    0.9193   -3.5041 C.3       1 <0>        -0.0774
     14 C14         7.0903    3.4392   -4.8337 C.3       1 <0>        -0.0953
     15 C15         6.3962    1.2768   -3.7226 C.3       1 <0>        -0.0906
     16 C16        -1.6498    0.9246   -8.0710 C.3       1 <0>        -0.0871
     17 C17        -4.5618    2.6685  -11.0314 C.3       1 <0>        -0.0716
     18 C18        -1.8952    0.4385   -9.4981 C.3       1 <0>         0.1333
     19 C19        -3.9477    1.4257  -10.3641 C.3       1 <0>         0.1246
     20 C20        -1.4789    2.4202   -8.2321 C.3       1 <0>         0.0606
     21 C21         6.2184    2.1837   -4.9453 C.3       1 <0>         0.1012
     22 C22        -3.6459    3.9150  -11.0410 C.3       1 <0>         0.1554
     23 C23        -4.4863    5.1891  -11.1812 C.3       1 <0>        -0.0356
     24 C24         1.4445    5.5921   -8.9731 C.3       1 <0>        -0.0795
     25 C25         1.6370    7.0835   -9.2718 C.3       1 <0>        -0.1203
     26 C26         2.1570    5.1335   -7.6933 C.3       1 <0>        -0.0920
     27 C27         0.9502    7.5360  -10.5601 C.3       1 <0>         0.1502
     28 C28         2.0196    3.6328   -7.4097 C.3       1 <0>         0.0224
     29 N1         -2.2374    2.7178   -9.4321 N.am      1 <0>        -0.3553
     30 N2         -2.5018    1.5760  -10.2111 N.3       1 <0>        -0.4320
     31 N3         -2.6997    3.8562  -12.1647 N.3       1 <0>        -0.9031
     32 N4          1.1922    8.9569  -10.7874 N.3       1 <0>        -0.9068
     33 N5          4.8139    2.5648   -5.0811 N.am      1 <0>        -0.5526
     34 N6          0.6426    3.2153   -7.3763 N.am      1 <0>        -0.5576
     35 O1         -2.5986    4.9773   -9.1254 O.2       1 <0>        -0.6710
     36 O2          2.3266    3.2509   -5.0269 O.2       1 <0>        -0.4901
     37 O3          4.6970    2.7561   -7.4190 O.2       1 <0>        -0.5902
     38 O4          0.3766    2.7593   -9.6452 O.2       1 <0>        -0.5833
     39 H1         -7.4841    5.0650  -15.6314 H         1 <0>         0.1320
     40 H2         -5.1973    6.0241  -15.7027 H         1 <0>         0.1324
     41 H3         -8.3853    4.1632  -13.5032 H         1 <0>         0.1328
     42 H4         -3.8120    6.0837  -13.6551 H         1 <0>         0.1324
     43 H5         -7.0082    4.2181  -11.4499 H         1 <0>         0.1434
     44 H6          9.7913    1.8735   -3.3164 H         1 <0>         0.0405
     45 H7          8.4833    2.7176   -2.4903 H         1 <0>         0.0421
     46 H8          9.1455    3.9945   -4.4750 H         1 <0>         0.0362
     47 H9          8.9496    2.5810   -5.5087 H         1 <0>         0.0439
     48 H10         8.2153    0.2934   -4.3342 H         1 <0>         0.0350
     49 H11         7.9674    0.3236   -2.5899 H         1 <0>         0.0428
     50 H12         6.7403    4.0666   -4.0033 H         1 <0>         0.0663
     51 H13         6.9925    4.0452   -5.7427 H         1 <0>         0.0466
     52 H14         5.8092    0.3589   -3.8487 H         1 <0>         0.0493
     53 H15         6.0049    1.7750   -2.8258 H         1 <0>         0.0520
     54 H16        -2.5391    0.7200   -7.4620 H         1 <0>         0.0915
     55 H17        -0.7905    0.4314   -7.6064 H         1 <0>         0.0601
     56 H18        -4.8571    2.4214  -12.0603 H         1 <0>         0.0688
     57 H19        -5.4956    2.9043  -10.5031 H         1 <0>         0.0630
     58 H20        -0.9338    0.2117   -9.9745 H         1 <0>         0.0807
     59 H21        -2.4949   -0.4779   -9.5259 H         1 <0>         0.0380
     60 H22        -4.4307    1.2677   -9.3899 H         1 <0>         0.0484
     61 H23        -4.1761    0.5456  -10.9773 H         1 <0>         0.0697
     62 H24        -1.8462    2.9971   -7.3786 H         1 <0>         0.0843
     63 H25         6.4768    1.6324   -5.8568 H         1 <0>         0.0831
     64 H26        -3.8200    6.0535  -11.1955 H         1 <0>         0.0704
     65 H27        -5.1199    5.2949  -10.2986 H         1 <0>         0.0718
     66 H28         0.3683    5.4079   -8.8774 H         1 <0>         0.0606
     67 H29         1.7918    5.0040   -9.8306 H         1 <0>         0.0458
     68 H30         1.2300    7.6523   -8.4256 H         1 <0>         0.0375
     69 H31         2.7093    7.3123   -9.3176 H         1 <0>         0.0392
     70 H32         1.7604    5.7005   -6.8419 H         1 <0>         0.0606
     71 H33         3.2243    5.3739   -7.7660 H         1 <0>         0.0579
     72 H34        -0.1287    7.3572  -10.4981 H         1 <0>         0.0571
     73 H35         1.3345    6.9786  -11.4193 H         1 <0>         0.0503
     74 H36         2.4714    3.0747   -8.2388 H         1 <0>         0.0993
     75 H37        -2.3461    2.9648  -12.4248 H         1 <0>         0.3700
     76 H38        -2.3015    4.7109  -12.4784 H         1 <0>         0.3660
     77 H39         0.7014    9.4044  -11.5317 H         1 <0>         0.3465
     78 H40         1.9755    9.3785  -10.3359 H         1 <0>         0.3446
     79 H41         4.2523    2.6558   -4.2398 H         1 <0>         0.3148
     80 H42         0.1596    3.2148   -6.4798 H         1 <0>         0.3220
@<TRIPOS>BOND
     1    1    2 ar
     2    1    3 ar
     3    2    4 ar
     4    3    5 ar
     5    4    6 ar
     6    5    6 ar
     7    6   23 1
     8    7   22 1
     9    7   29 am
    10    7   35 2
    11    8    9 1
    12    8   28 1
    13    8   36 2
    14    9   33 am
    15    9   37 2
    16   10   20 1
    17   10   34 am
    18   10   38 2
    19   11   12 1
    20   11   13 1
    21   12   14 1
    22   13   15 1
    23   14   21 1
    24   15   21 1
    25   16   18 1
    26   16   20 1
    27   17   19 1
    28   17   22 1
    29   18   30 1
    30   19   30 1
    31   20   29 1
    32   21   33 1
    33   22   23 1
    34   22   31 1
    35   24   25 1
    36   24   26 1
    37   25   27 1
    38   26   28 1
    39   27   32 1
    40   28   34 1
    41   29   30 1
    42    1   39 1
    43    2   40 1
    44    3   41 1
    45    4   42 1
    46    5   43 1
    47   11   44 1
    48   11   45 1
    49   12   46 1
    50   12   47 1
    51   13   48 1
    52   13   49 1
    53   14   50 1
    54   14   51 1
    55   15   52 1
    56   15   53 1
    57   16   54 1
    58   16   55 1
    59   17   56 1
    60   17   57 1
    61   18   58 1
    62   18   59 1
    63   19   60 1
    64   19   61 1
    65   20   62 1
    66   21   63 1
    67   23   64 1
    68   23   65 1
    69   24   66 1
    70   24   67 1
    71   25   68 1
    72   25   69 1
    73   26   70 1
    74   26   71 1
    75   27   72 1
    76   27   73 1
    77   28   74 1
    78   31   75 1
    79   31   76 1
    80   32   77 1
    81   32   78 1
    82   33   79 1
    83   34   80 1
@<TRIPOS>MOLECULE
1a46_ligand_215
   80    83     0     0     0
SMALL
USER_CHARGES

mmff94s_NoEstat = 85.49
@<TRIPOS>ATOM
      1 C1         -6.8775    5.0901  -14.7309 C.ar      1 <0>        -0.1300
      2 C2         -5.5917    5.6294  -14.7709 C.ar      1 <0>        -0.1323
      3 C3         -7.3842    4.5832  -13.5342 C.ar      1 <0>        -0.1309
      4 C4         -4.8126    5.6616  -13.6144 C.ar      1 <0>        -0.1275
      5 C5         -6.6051    4.6154  -12.3777 C.ar      1 <0>        -0.1272
      6 C6         -5.3244    5.1544  -12.4253 C.ar      1 <0>        -0.0843
      7 C7         -2.7863    3.9453   -9.7694 C.2       1 <0>         0.6709
      8 C8          2.7796    3.2097   -6.1637 C.2       1 <0>         0.4867
      9 C9          3.5094    4.2556   -5.3725 C.2       1 <0>         0.5883
     10 C10        -0.0591    2.8141   -8.5012 C.2       1 <0>         0.6572
     11 C11         8.1728    6.9800   -5.1595 C.3       1 <0>        -0.0802
     12 C12         8.1889    5.6333   -4.4420 C.3       1 <0>        -0.0765
     13 C13         6.7714    7.5831   -5.1940 C.3       1 <0>        -0.0774
     14 C14         7.1749    4.6619   -5.0439 C.3       1 <0>        -0.0953
     15 C15         5.7560    6.6142   -5.7974 C.3       1 <0>        -0.0906
     16 C16        -1.6498    0.9246   -8.0710 C.3       1 <0>        -0.0871
     17 C17        -4.5618    2.6685  -11.0314 C.3       1 <0>        -0.0716
     18 C18        -1.8952    0.4385   -9.4981 C.3       1 <0>         0.1333
     19 C19        -3.9477    1.4257  -10.3641 C.3       1 <0>         0.1246
     20 C20        -1.4789    2.4202   -8.2321 C.3       1 <0>         0.0606
     21 C21         5.7670    5.2673   -5.0662 C.3       1 <0>         0.1012
     22 C22        -3.6459    3.9150  -11.0410 C.3       1 <0>         0.1554
     23 C23        -4.4863    5.1891  -11.1812 C.3       1 <0>        -0.0356
     24 C24         1.4445    5.5921   -8.9731 C.3       1 <0>        -0.0795
     25 C25         1.6370    7.0835   -9.2718 C.3       1 <0>        -0.1203
     26 C26         2.1570    5.1335   -7.6933 C.3       1 <0>        -0.0920
     27 C27         0.9502    7.5360  -10.5601 C.3       1 <0>         0.1502
     28 C28         2.0196    3.6328   -7.4097 C.3       1 <0>         0.0224
     29 N1         -2.2374    2.7178   -9.4321 N.am      1 <0>        -0.3553
     30 N2         -2.5018    1.5760  -10.2111 N.3       1 <0>        -0.4320
     31 N3         -2.6997    3.8562  -12.1647 N.3       1 <0>        -0.9031
     32 N4          1.1922    8.9569  -10.7874 N.3       1 <0>        -0.9068
     33 N5          4.8390    4.3425   -5.7142 N.am      1 <0>        -0.5526
     34 N6          0.6426    3.2153   -7.3763 N.am      1 <0>        -0.5576
     35 O1         -2.5986    4.9773   -9.1254 O.2       1 <0>        -0.6710
     36 O2          2.7765    2.0764   -5.7001 O.2       1 <0>        -0.4901
     37 O3          2.8820    4.8776   -4.5310 O.2       1 <0>        -0.5902
     38 O4          0.3766    2.7593   -9.6452 O.2       1 <0>        -0.5833
     39 H1         -7.4841    5.0650  -15.6314 H         1 <0>         0.1320
     40 H2         -5.1973    6.0241  -15.7027 H         1 <0>         0.1324
     41 H3         -8.3853    4.1632  -13.5032 H         1 <0>         0.1328
     42 H4         -3.8120    6.0837  -13.6551 H         1 <0>         0.1324
     43 H5         -7.0082    4.2181  -11.4499 H         1 <0>         0.1434
     44 H6          8.8599    7.6723   -4.6600 H         1 <0>         0.0405
     45 H7          8.5388    6.8503   -6.1855 H         1 <0>         0.0421
     46 H8          9.1933    5.1983   -4.4971 H         1 <0>         0.0362
     47 H9          7.9630    5.7828   -3.3790 H         1 <0>         0.0439
     48 H10         6.4618    7.8476   -4.1755 H         1 <0>         0.0350
     49 H11         6.7844    8.5121   -5.7752 H         1 <0>         0.0428
     50 H12         7.4853    4.3962   -6.0631 H         1 <0>         0.0663
     51 H13         7.1723    3.7288   -4.4675 H         1 <0>         0.0466
     52 H14         4.7534    7.0567   -5.7519 H         1 <0>         0.0493
     53 H15         5.9819    6.4653   -6.8616 H         1 <0>         0.0520
     54 H16        -2.5391    0.7200   -7.4620 H         1 <0>         0.0915
     55 H17        -0.7905    0.4314   -7.6064 H         1 <0>         0.0601
     56 H18        -4.8571    2.4214  -12.0603 H         1 <0>         0.0688
     57 H19        -5.4956    2.9043  -10.5031 H         1 <0>         0.0630
     58 H20        -0.9338    0.2117   -9.9745 H         1 <0>         0.0807
     59 H21        -2.4949   -0.4779   -9.5259 H         1 <0>         0.0380
     60 H22        -4.4307    1.2677   -9.3899 H         1 <0>         0.0484
     61 H23        -4.1761    0.5456  -10.9773 H         1 <0>         0.0697
     62 H24        -1.8462    2.9971   -7.3786 H         1 <0>         0.0843
     63 H25         5.4036    5.3990   -4.0404 H         1 <0>         0.0831
     64 H26        -3.8200    6.0535  -11.1955 H         1 <0>         0.0704
     65 H27        -5.1199    5.2949  -10.2986 H         1 <0>         0.0718
     66 H28         0.3683    5.4079   -8.8774 H         1 <0>         0.0606
     67 H29         1.7918    5.0040   -9.8306 H         1 <0>         0.0458
     68 H30         1.2300    7.6523   -8.4256 H         1 <0>         0.0375
     69 H31         2.7093    7.3123   -9.3176 H         1 <0>         0.0392
     70 H32         1.7604    5.7005   -6.8419 H         1 <0>         0.0606
     71 H33         3.2243    5.3739   -7.7660 H         1 <0>         0.0579
     72 H34        -0.1287    7.3572  -10.4981 H         1 <0>         0.0571
     73 H35         1.3345    6.9786  -11.4193 H         1 <0>         0.0503
     74 H36         2.4714    3.0747   -8.2388 H         1 <0>         0.0993
     75 H37        -2.3461    2.9648  -12.4248 H         1 <0>         0.3700
     76 H38        -2.3015    4.7109  -12.4784 H         1 <0>         0.3660
     77 H39         0.7014    9.4044  -11.5317 H         1 <0>         0.3465
     78 H40         1.9755    9.3785  -10.3359 H         1 <0>         0.3446
     79 H41         5.1915    3.7372   -6.4495 H         1 <0>         0.3148
     80 H42         0.1596    3.2148   -6.4798 H         1 <0>         0.3220
@<TRIPOS>BOND
     1    1    2 ar
     2    1    3 ar
     3    2    4 ar
     4    3    5 ar
     5    4    6 ar
     6    5    6 ar
     7    6   23 1
     8    7   22 1
     9    7   29 am
    10    7   35 2
    11    8    9 1
    12    8   28 1
    13    8   36 2
    14    9   33 am
    15    9   37 2
    16   10   20 1
    17   10   34 am
    18   10   38 2
    19   11   12 1
    20   11   13 1
    21   12   14 1
    22   13   15 1
    23   14   21 1
    24   15   21 1
    25   16   18 1
    26   16   20 1
    27   17   19 1
    28   17   22 1
    29   18   30 1
    30   19   30 1
    31   20   29 1
    32   21   33 1
    33   22   23 1
    34   22   31 1
    35   24   25 1
    36   24   26 1
    37   25   27 1
    38   26   28 1
    39   27   32 1
    40   28   34 1
    41   29   30 1
    42    1   39 1
    43    2   40 1
    44    3   41 1
    45    4   42 1
    46    5   43 1
    47   11   44 1
    48   11   45 1
    49   12   46 1
    50   12   47 1
    51   13   48 1
    52   13   49 1
    53   14   50 1
    54   14   51 1
    55   15   52 1
    56   15   53 1
    57   16   54 1
    58   16   55 1
    59   17   56 1
    60   17   57 1
    61   18   58 1
    62   18   59 1
    63   19   60 1
    64   19   61 1
    65   20   62 1
    66   21   63 1
    67   23   64 1
    68   23   65 1
    69   24   66 1
    70   24   67 1
    71   25   68 1
    72   25   69 1
    73   26   70 1
    74   26   71 1
    75   27   72 1
    76   27   73 1
    77   28   74 1
    78   31   75 1
    79   31   76 1
    80   32   77 1
    81   32   78 1
    82   33   79 1
    83   34   80 1
@<TRIPOS>MOLECULE
1a46_ligand_216
   80    83     0     0     0
SMALL
USER_CHARGES

mmff94s_NoEstat = 85.49
@<TRIPOS>ATOM
      1 C1         -7.1814    8.1831  -11.8066 C.ar      1 <0>        -0.1300
      2 C2         -5.8511    8.6018  -11.7877 C.ar      1 <0>        -0.1323
      3 C3         -7.6137    7.1932  -10.9240 C.ar      1 <0>        -0.1309
      4 C4         -4.9529    8.0306  -10.8863 C.ar      1 <0>        -0.1275
      5 C5         -6.7155    6.6220  -10.0225 C.ar      1 <0>        -0.1272
      6 C6         -5.3910    7.0444  -10.0096 C.ar      1 <0>        -0.0843
      7 C7         -2.7477    4.5672   -8.6551 C.2       1 <0>         0.6709
      8 C8          2.7796    3.2097   -6.1637 C.2       1 <0>         0.4867
      9 C9          2.2829    2.0299   -5.3801 C.2       1 <0>         0.5883
     10 C10        -0.0591    2.8141   -8.5012 C.2       1 <0>         0.6572
     11 C11         1.5839   -3.3211   -5.6849 C.3       1 <0>        -0.0802
     12 C12         2.3480   -2.5670   -4.6002 C.3       1 <0>        -0.0765
     13 C13         0.4244   -2.4952   -6.2347 C.3       1 <0>        -0.0774
     14 C14         2.8173   -1.1982   -5.0901 C.3       1 <0>        -0.0953
     15 C15         0.8909   -1.1259   -6.7260 C.3       1 <0>        -0.0906
     16 C16        -1.8142    1.0434   -8.7649 C.3       1 <0>        -0.0871
     17 C17        -4.7936    4.1559  -10.0766 C.3       1 <0>        -0.0716
     18 C18        -2.2713    1.3172  -10.1964 C.3       1 <0>         0.1333
     19 C19        -4.2684    2.7130  -10.1718 C.3       1 <0>         0.1246
     20 C20        -1.4789    2.4202   -8.2321 C.3       1 <0>         0.0606
     21 C21         1.6479   -0.3676   -5.6301 C.3       1 <0>         0.1012
     22 C22        -3.7376    5.2000   -9.6434 C.3       1 <0>         0.1554
     23 C23        -4.4248    6.4299   -9.0399 C.3       1 <0>        -0.0356
     24 C24         1.4445    5.5921   -8.9731 C.3       1 <0>        -0.0795
     25 C25         1.6370    7.0835   -9.2718 C.3       1 <0>        -0.1203
     26 C26         2.1570    5.1335   -7.6933 C.3       1 <0>        -0.0920
     27 C27         0.9502    7.5360  -10.5601 C.3       1 <0>         0.1502
     28 C28         2.0196    3.6328   -7.4097 C.3       1 <0>         0.0224
     29 N1         -2.3208    3.2998   -9.0203 N.am      1 <0>        -0.3553
     30 N2         -2.8071    2.6894  -10.1914 N.3       1 <0>        -0.4320
     31 N3         -2.9336    5.6348  -10.7950 N.3       1 <0>        -0.9031
     32 N4         -0.4891    7.3143  -10.4680 N.3       1 <0>        -0.9068
     33 N5          2.1424    0.9032   -6.1564 N.am      1 <0>        -0.5526
     34 N6          0.6426    3.2153   -7.3763 N.am      1 <0>        -0.5576
     35 O1         -2.3654    5.1506   -7.6410 O.2       1 <0>        -0.6710
     36 O2          3.8302    3.7133   -5.7870 O.2       1 <0>        -0.4901
     37 O3          2.0451    2.1901   -4.1942 O.2       1 <0>        -0.5902
     38 O4          0.3766    2.7593   -9.6452 O.2       1 <0>        -0.5833
     39 H1         -7.8808    8.6278  -12.5086 H         1 <0>         0.1320
     40 H2         -5.5146    9.3725  -12.4750 H         1 <0>         0.1324
     41 H3         -8.6496    6.8672  -10.9389 H         1 <0>         0.1328
     42 H4         -3.9182    8.3631  -10.8788 H         1 <0>         0.1324
     43 H5         -7.0613    5.8514   -9.3387 H         1 <0>         0.1434
     44 H6          2.2693   -3.5764   -6.5027 H         1 <0>         0.0405
     45 H7          1.2041   -4.2657   -5.2793 H         1 <0>         0.0421
     46 H8          1.7035   -2.4385   -3.7218 H         1 <0>         0.0362
     47 H9          3.2121   -3.1592   -4.2788 H         1 <0>         0.0439
     48 H10        -0.0574   -3.0370   -7.0564 H         1 <0>         0.0350
     49 H11        -0.3326   -2.3626   -5.4518 H         1 <0>         0.0428
     50 H12         3.3102   -0.6631   -4.2694 H         1 <0>         0.0663
     51 H13         3.5756   -1.3313   -5.8729 H         1 <0>         0.0466
     52 H14         1.5347   -1.2544   -7.6060 H         1 <0>         0.0493
     53 H15         0.0251   -0.5402   -7.0577 H         1 <0>         0.0520
     54 H16        -2.6505    0.6220   -8.1933 H         1 <0>         0.0915
     55 H17        -0.9769    0.3401   -8.7238 H         1 <0>         0.0601
     56 H18        -5.2271    4.4505  -11.0420 H         1 <0>         0.0688
     57 H19        -5.6282    4.1614   -9.3624 H         1 <0>         0.0630
     58 H20        -1.4027    1.2932  -10.8654 H         1 <0>         0.0807
     59 H21        -2.9789    0.5622  -10.5565 H         1 <0>         0.0380
     60 H22        -4.6584    2.1340   -9.3232 H         1 <0>         0.0484
     61 H23        -4.6688    2.2501  -11.0817 H         1 <0>         0.0697
     62 H24        -1.6773    2.5360   -7.1628 H         1 <0>         0.0843
     63 H25         0.9629   -0.1158   -4.8124 H         1 <0>         0.0831
     64 H26        -3.6625    7.1558   -8.7509 H         1 <0>         0.0704
     65 H27        -4.9408    6.1344   -8.1245 H         1 <0>         0.0718
     66 H28         0.3683    5.4079   -8.8774 H         1 <0>         0.0606
     67 H29         1.7918    5.0040   -9.8306 H         1 <0>         0.0458
     68 H30         1.2300    7.6523   -8.4256 H         1 <0>         0.0375
     69 H31         2.7093    7.3123   -9.3176 H         1 <0>         0.0392
     70 H32         1.7604    5.7005   -6.8419 H         1 <0>         0.0606
     71 H33         3.2243    5.3739   -7.7660 H         1 <0>         0.0579
     72 H34         1.3485    6.9825  -11.4172 H         1 <0>         0.0571
     73 H35         1.1247    8.6013  -10.7375 H         1 <0>         0.0503
     74 H36         2.4714    3.0747   -8.2388 H         1 <0>         0.0993
     75 H37        -2.7229    4.9595  -11.4927 H         1 <0>         0.3700
     76 H38        -2.4695    6.5111  -10.7297 H         1 <0>         0.3660
     77 H39        -1.0402    7.4574  -11.2870 H         1 <0>         0.3465
     78 H40        -0.8946    7.2297   -9.5606 H         1 <0>         0.3446
     79 H41         2.3934    0.9566   -7.1391 H         1 <0>         0.3148
     80 H42         0.1596    3.2148   -6.4798 H         1 <0>         0.3220
@<TRIPOS>BOND
     1    1    2 ar
     2    1    3 ar
     3    2    4 ar
     4    3    5 ar
     5    4    6 ar
     6    5    6 ar
     7    6   23 1
     8    7   22 1
     9    7   29 am
    10    7   35 2
    11    8    9 1
    12    8   28 1
    13    8   36 2
    14    9   33 am
    15    9   37 2
    16   10   20 1
    17   10   34 am
    18   10   38 2
    19   11   12 1
    20   11   13 1
    21   12   14 1
    22   13   15 1
    23   14   21 1
    24   15   21 1
    25   16   18 1
    26   16   20 1
    27   17   19 1
    28   17   22 1
    29   18   30 1
    30   19   30 1
    31   20   29 1
    32   21   33 1
    33   22   23 1
    34   22   31 1
    35   24   25 1
    36   24   26 1
    37   25   27 1
    38   26   28 1
    39   27   32 1
    40   28   34 1
    41   29   30 1
    42    1   39 1
    43    2   40 1
    44    3   41 1
    45    4   42 1
    46    5   43 1
    47   11   44 1
    48   11   45 1
    49   12   46 1
    50   12   47 1
    51   13   48 1
    52   13   49 1
    53   14   50 1
    54   14   51 1
    55   15   52 1
    56   15   53 1
    57   16   54 1
    58   16   55 1
    59   17   56 1
    60   17   57 1
    61   18   58 1
    62   18   59 1
    63   19   60 1
    64   19   61 1
    65   20   62 1
    66   21   63 1
    67   23   64 1
    68   23   65 1
    69   24   66 1
    70   24   67 1
    71   25   68 1
    72   25   69 1
    73   26   70 1
    74   26   71 1
    75   27   72 1
    76   27   73 1
    77   28   74 1
    78   31   75 1
    79   31   76 1
    80   32   77 1
    81   32   78 1
    82   33   79 1
    83   34   80 1
@<TRIPOS>MOLECULE
1a46_ligand_217
   80    83     0     0     0
SMALL
USER_CHARGES

mmff94s_NoEstat = 85.49
@<TRIPOS>ATOM
      1 C1         -7.1732    5.1663  -14.6915 C.ar      1 <0>        -0.1300
      2 C2         -5.9354    5.8086  -14.7170 C.ar      1 <0>        -0.1323
      3 C3         -7.6444    4.6069  -13.5037 C.ar      1 <0>        -0.1309
      4 C4         -5.1685    5.8915  -13.5548 C.ar      1 <0>        -0.1275
      5 C5         -6.8775    4.6898  -12.3415 C.ar      1 <0>        -0.1272
      6 C6         -5.6446    5.3316  -12.3746 C.ar      1 <0>        -0.0843
      7 C7         -3.0329    4.3040   -9.7137 C.2       1 <0>         0.6709
      8 C8          2.7796    3.2097   -6.1637 C.2       1 <0>         0.4867
      9 C9          4.2189    2.8058   -6.2975 C.2       1 <0>         0.5883
     10 C10        -0.2306    3.3845   -8.4382 C.2       1 <0>         0.6572
     11 C11         7.5343   -1.4365   -5.8220 C.3       1 <0>        -0.0802
     12 C12         7.2945   -0.6674   -4.5259 C.3       1 <0>        -0.0765
     13 C13         7.3810   -0.5385   -7.0463 C.3       1 <0>        -0.0774
     14 C14         5.9423    0.0436   -4.5344 C.3       1 <0>        -0.0953
     15 C15         6.0286    0.1721   -7.0579 C.3       1 <0>        -0.0906
     16 C16        -1.6648    1.3674   -8.0386 C.3       1 <0>        -0.0871
     17 C17        -4.6909    2.9009  -11.0011 C.3       1 <0>        -0.0716
     18 C18        -1.8612    0.8785   -9.4723 C.3       1 <0>         0.1333
     19 C19        -3.9819    1.7050  -10.3424 C.3       1 <0>         0.1246
     20 C20        -1.6152    2.8736   -8.1831 C.3       1 <0>         0.0606
     21 C21         5.7973    0.9529   -5.7596 C.3       1 <0>         0.1012
     22 C22        -3.8794    4.2177  -10.9915 C.3       1 <0>         0.1554
     23 C23        -4.8198    5.4208  -11.1245 C.3       1 <0>        -0.0356
     24 C24         1.5857    6.0302   -6.5865 C.3       1 <0>        -0.0795
     25 C25         1.6811    7.5259   -6.9095 C.3       1 <0>        -0.1203
     26 C26         2.1570    5.1335   -7.6933 C.3       1 <0>        -0.0920
     27 C27         1.0885    8.4192   -5.8200 C.3       1 <0>         0.1502
     28 C28         2.0196    3.6328   -7.4097 C.3       1 <0>         0.0224
     29 N1         -2.3880    3.1216   -9.3852 N.am      1 <0>        -0.3553
     30 N2         -2.5540    1.9705  -10.1777 N.3       1 <0>        -0.4320
     31 N3         -2.9247    4.2482  -12.1092 N.3       1 <0>        -0.9031
     32 N4          1.8018    8.2205   -4.5627 N.3       1 <0>        -0.9068
     33 N5          4.4669    1.5582   -5.7743 N.am      1 <0>        -0.5526
     34 N6          0.6426    3.2153   -7.3763 N.am      1 <0>        -0.5576
     35 O1         -2.9337    5.3408   -9.0578 O.2       1 <0>        -0.6710
     36 O2          2.3266    3.2509   -5.0269 O.2       1 <0>        -0.4901
     37 O3          4.9897    3.5984   -6.8135 O.2       1 <0>        -0.5902
     38 O4          0.0350    3.8958   -9.5198 O.2       1 <0>        -0.5833
     39 H1         -7.7703    5.1016  -15.5965 H         1 <0>         0.1320
     40 H2         -5.5686    6.2441  -15.6419 H         1 <0>         0.1324
     41 H3         -8.6082    4.1066  -13.4840 H         1 <0>         0.1328
     42 H4         -4.2053    6.3939  -13.5842 H         1 <0>         0.1324
     43 H5         -7.2527    4.2510  -11.4207 H         1 <0>         0.1434
     44 H6          8.5383   -1.8754   -5.8100 H         1 <0>         0.0405
     45 H7          6.8220   -2.2681   -5.8889 H         1 <0>         0.0421
     46 H8          7.3435   -1.3556   -3.6745 H         1 <0>         0.0362
     47 H9          8.0932    0.0714   -4.3862 H         1 <0>         0.0439
     48 H10         8.1848    0.2080   -7.0554 H         1 <0>         0.0350
     49 H11         7.4905   -1.1368   -7.9579 H         1 <0>         0.0428
     50 H12         5.1377   -0.7035   -4.5242 H         1 <0>         0.0663
     51 H13         5.8303    0.6323   -3.6157 H         1 <0>         0.0466
     52 H14         5.9775    0.8513   -7.9176 H         1 <0>         0.0493
     53 H15         5.2294   -0.5676   -7.1985 H         1 <0>         0.0520
     54 H16        -2.5383    1.0847   -7.4380 H         1 <0>         0.0915
     55 H17        -0.7712    0.9407   -7.5731 H         1 <0>         0.0601
     56 H18        -4.9589    2.6417  -12.0345 H         1 <0>         0.0688
     57 H19        -5.6440    3.0543  -10.4769 H         1 <0>         0.0630
     58 H20        -0.8817    0.7357   -9.9443 H         1 <0>         0.0807
     59 H21        -2.3843   -0.0833   -9.5137 H         1 <0>         0.0380
     60 H22        -4.4563    1.4977   -9.3732 H         1 <0>         0.0484
     61 H23        -4.1342    0.8159  -10.9661 H         1 <0>         0.0697
     62 H24        -2.0334    3.4095   -7.3263 H         1 <0>         0.0843
     63 H25         6.5114    1.7819   -5.6930 H         1 <0>         0.0831
     64 H26        -4.2259    6.3366  -11.1252 H         1 <0>         0.0704
     65 H27        -5.4653    5.4651  -10.2453 H         1 <0>         0.0718
     66 H28         2.1358    5.8550   -5.6547 H         1 <0>         0.0606
     67 H29         0.5392    5.7688   -6.3906 H         1 <0>         0.0458
     68 H30         2.7419    7.7748   -7.0444 H         1 <0>         0.0375
     69 H31         1.1870    7.7255   -7.8687 H         1 <0>         0.0392
     70 H32         3.2164    5.3787   -7.8393 H         1 <0>         0.0606
     71 H33         1.6466    5.3535   -8.6384 H         1 <0>         0.0579
     72 H34         0.0275    8.1885   -5.6755 H         1 <0>         0.0571
     73 H35         1.1682    9.4739   -6.0992 H         1 <0>         0.0503
     74 H36         2.4714    3.0747   -8.2388 H         1 <0>         0.0993
     75 H37        -2.4982    3.3913  -12.3759 H         1 <0>         0.3700
     76 H38        -2.5954    5.1358  -12.4112 H         1 <0>         0.3660
     77 H39         1.4387    8.6562   -3.7421 H         1 <0>         0.3465
     78 H40         2.7216    7.8360   -4.5996 H         1 <0>         0.3446
     79 H41         3.6911    1.0342   -5.3805 H         1 <0>         0.3148
     80 H42         0.2924    2.7728   -6.5286 H         1 <0>         0.3220
@<TRIPOS>BOND
     1    1    2 ar
     2    1    3 ar
     3    2    4 ar
     4    3    5 ar
     5    4    6 ar
     6    5    6 ar
     7    6   23 1
     8    7   22 1
     9    7   29 am
    10    7   35 2
    11    8    9 1
    12    8   28 1
    13    8   36 2
    14    9   33 am
    15    9   37 2
    16   10   20 1
    17   10   34 am
    18   10   38 2
    19   11   12 1
    20   11   13 1
    21   12   14 1
    22   13   15 1
    23   14   21 1
    24   15   21 1
    25   16   18 1
    26   16   20 1
    27   17   19 1
    28   17   22 1
    29   18   30 1
    30   19   30 1
    31   20   29 1
    32   21   33 1
    33   22   23 1
    34   22   31 1
    35   24   25 1
    36   24   26 1
    37   25   27 1
    38   26   28 1
    39   27   32 1
    40   28   34 1
    41   29   30 1
    42    1   39 1
    43    2   40 1
    44    3   41 1
    45    4   42 1
    46    5   43 1
    47   11   44 1
    48   11   45 1
    49   12   46 1
    50   12   47 1
    51   13   48 1
    52   13   49 1
    53   14   50 1
    54   14   51 1
    55   15   52 1
    56   15   53 1
    57   16   54 1
    58   16   55 1
    59   17   56 1
    60   17   57 1
    61   18   58 1
    62   18   59 1
    63   19   60 1
    64   19   61 1
    65   20   62 1
    66   21   63 1
    67   23   64 1
    68   23   65 1
    69   24   66 1
    70   24   67 1
    71   25   68 1
    72   25   69 1
    73   26   70 1
    74   26   71 1
    75   27   72 1
    76   27   73 1
    77   28   74 1
    78   31   75 1
    79   31   76 1
    80   32   77 1
    81   32   78 1
    82   33   79 1
    83   34   80 1
@<TRIPOS>MOLECULE
1a46_ligand_218
   80    83     0     0     0
SMALL
USER_CHARGES

mmff94s_NoEstat = 85.50
@<TRIPOS>ATOM
      1 C1         -3.7305   -5.9204  -11.3537 C.ar      1 <0>        -0.1300
      2 C2         -2.4262   -5.5183  -11.6410 C.ar      1 <0>        -0.1323
      3 C3         -4.6750   -4.9808  -10.9404 C.ar      1 <0>        -0.1309
      4 C4         -2.0662   -4.1766  -11.5149 C.ar      1 <0>        -0.1275
      5 C5         -4.3150   -3.6391  -10.8142 C.ar      1 <0>        -0.1272
      6 C6         -3.0129   -3.2458  -11.1023 C.ar      1 <0>        -0.0843
      7 C7         -1.7147   -0.0189   -9.4111 C.2       1 <0>         0.6709
      8 C8          2.7796    3.2097   -6.1637 C.2       1 <0>         0.4867
      9 C9          4.2189    2.8058   -6.2975 C.2       1 <0>         0.5883
     10 C10         0.2181    1.9581   -7.7739 C.2       1 <0>         0.6572
     11 C11         7.3463   -1.3422   -7.7903 C.3       1 <0>        -0.0802
     12 C12         7.3419   -0.6548   -6.4279 C.3       1 <0>        -0.0765
     13 C13         7.0008   -0.3686   -8.9135 C.3       1 <0>        -0.0774
     14 C14         6.0188    0.0615   -6.1623 C.3       1 <0>        -0.0953
     15 C15         5.6770    0.3474   -8.6510 C.3       1 <0>        -0.0906
     16 C16        -1.7326    1.7367   -6.2145 C.3       1 <0>        -0.0871
     17 C17        -3.1871   -1.8587   -8.5042 C.3       1 <0>        -0.0716
     18 C18        -1.5889    0.2745   -5.7969 C.3       1 <0>         0.1333
     19 C19        -3.0480   -1.1203   -7.1617 C.3       1 <0>         0.1246
     20 C20        -1.2590    1.7411   -7.6524 C.3       1 <0>         0.0606
     21 C21         5.6814    1.0464   -7.2871 C.3       1 <0>         0.1012
     22 C22        -2.1125   -1.4947   -9.5555 C.3       1 <0>         0.1554
     23 C23        -2.6257   -1.8026  -10.9666 C.3       1 <0>        -0.0356
     24 C24         3.6080    5.6033   -7.8654 C.3       1 <0>        -0.0795
     25 C25         3.7321    7.1143   -8.0937 C.3       1 <0>        -0.1203
     26 C26         2.1570    5.1335   -7.6933 C.3       1 <0>        -0.0920
     27 C27         5.1782    7.5875   -8.2387 C.3       1 <0>         0.1502
     28 C28         2.0196    3.6328   -7.4097 C.3       1 <0>         0.0224
     29 N1         -1.5278    0.3875   -8.0990 N.am      1 <0>        -0.3553
     30 N2         -1.7250   -0.5121   -7.0349 N.3       1 <0>        -0.4320
     31 N3         -0.8818   -2.2667   -9.3297 N.3       1 <0>        -0.9031
     32 N4          5.8065    6.9420   -9.3866 N.3       1 <0>        -0.9068
     33 N5          4.3773    1.6573   -7.0377 N.am      1 <0>        -0.5526
     34 N6          0.6426    3.2153   -7.3763 N.am      1 <0>        -0.5576
     35 O1         -1.5651    0.7213  -10.3831 O.2       1 <0>        -0.6710
     36 O2          2.3266    3.2509   -5.0269 O.2       1 <0>        -0.4901
     37 O3          5.0600    3.4942   -5.7431 O.2       1 <0>        -0.5902
     38 O4          0.9290    1.0536   -8.1959 O.2       1 <0>        -0.5833
     39 H1         -4.0108   -6.9651  -11.4519 H         1 <0>         0.1320
     40 H2         -1.6909   -6.2500  -11.9629 H         1 <0>         0.1324
     41 H3         -5.6906   -5.2940  -10.7166 H         1 <0>         0.1328
     42 H4         -1.0476   -3.8726  -11.7408 H         1 <0>         0.1324
     43 H5         -5.0575   -2.9141  -10.4915 H         1 <0>         0.1434
     44 H6          8.3310   -1.7855   -7.9765 H         1 <0>         0.0405
     45 H7          6.6205   -2.1648   -7.7853 H         1 <0>         0.0421
     46 H8          7.5244   -1.3952   -5.6409 H         1 <0>         0.0362
     47 H9          8.1638    0.0702   -6.3817 H         1 <0>         0.0439
     48 H10         7.8025    0.3733   -9.0141 H         1 <0>         0.0350
     49 H11         6.9447   -0.9091   -9.8652 H         1 <0>         0.0428
     50 H12         5.2165   -0.6812   -6.0606 H         1 <0>         0.0663
     51 H13         6.0735    0.5919   -5.2038 H         1 <0>         0.0466
     52 H14         5.4908    1.0793   -9.4463 H         1 <0>         0.0493
     53 H15         4.8544   -0.3784   -8.6980 H         1 <0>         0.0520
     54 H16        -2.7915    2.0208   -6.1758 H         1 <0>         0.0915
     55 H17        -1.1685    2.4118   -5.5637 H         1 <0>         0.0601
     56 H18        -3.1756   -2.9428   -8.3269 H         1 <0>         0.0688
     57 H19        -4.1842   -1.6345   -8.9071 H         1 <0>         0.0630
     58 H20        -0.5812    0.1087   -5.3971 H         1 <0>         0.0807
     59 H21        -2.2993   -0.0031   -5.0104 H         1 <0>         0.0380
     60 H22        -3.8377   -0.3598   -7.0886 H         1 <0>         0.0484
     61 H23        -3.2188   -1.8335   -6.3463 H         1 <0>         0.0697
     62 H24        -1.7729    2.4744   -8.2803 H         1 <0>         0.0843
     63 H25         6.4089    1.8663   -7.2928 H         1 <0>         0.0831
     64 H26        -1.8489   -1.5475  -11.6898 H         1 <0>         0.0704
     65 H27        -3.4798   -1.1578  -11.1818 H         1 <0>         0.0718
     66 H28         4.0550    5.0981   -8.7294 H         1 <0>         0.0606
     67 H29         4.2035    5.3200   -6.9896 H         1 <0>         0.0458
     68 H30         3.1762    7.3642   -9.0068 H         1 <0>         0.0375
     69 H31         3.2423    7.6502   -7.2709 H         1 <0>         0.0392
     70 H32         1.5916    5.3838   -8.5996 H         1 <0>         0.0606
     71 H33         1.6928    5.6841   -6.8667 H         1 <0>         0.0579
     72 H34         5.7475    7.3513   -7.3332 H         1 <0>         0.0571
     73 H35         5.2173    8.6706   -8.3874 H         1 <0>         0.0503
     74 H36         2.4714    3.0747   -8.2388 H         1 <0>         0.0993
     75 H37        -0.6260   -2.4640   -8.3900 H         1 <0>         0.3700
     76 H38        -0.2603   -2.3800  -10.0968 H         1 <0>         0.3660
     77 H39         6.7859    7.0740   -9.5225 H         1 <0>         0.3465
     78 H40         5.2151    6.5685  -10.0979 H         1 <0>         0.3446
     79 H41         3.5512    1.2141   -7.4284 H         1 <0>         0.3148
     80 H42        -0.0552    3.8781   -7.0434 H         1 <0>         0.3220
@<TRIPOS>BOND
     1    1    2 ar
     2    1    3 ar
     3    2    4 ar
     4    3    5 ar
     5    4    6 ar
     6    5    6 ar
     7    6   23 1
     8    7   22 1
     9    7   29 am
    10    7   35 2
    11    8    9 1
    12    8   28 1
    13    8   36 2
    14    9   33 am
    15    9   37 2
    16   10   20 1
    17   10   34 am
    18   10   38 2
    19   11   12 1
    20   11   13 1
    21   12   14 1
    22   13   15 1
    23   14   21 1
    24   15   21 1
    25   16   18 1
    26   16   20 1
    27   17   19 1
    28   17   22 1
    29   18   30 1
    30   19   30 1
    31   20   29 1
    32   21   33 1
    33   22   23 1
    34   22   31 1
    35   24   25 1
    36   24   26 1
    37   25   27 1
    38   26   28 1
    39   27   32 1
    40   28   34 1
    41   29   30 1
    42    1   39 1
    43    2   40 1
    44    3   41 1
    45    4   42 1
    46    5   43 1
    47   11   44 1
    48   11   45 1
    49   12   46 1
    50   12   47 1
    51   13   48 1
    52   13   49 1
    53   14   50 1
    54   14   51 1
    55   15   52 1
    56   15   53 1
    57   16   54 1
    58   16   55 1
    59   17   56 1
    60   17   57 1
    61   18   58 1
    62   18   59 1
    63   19   60 1
    64   19   61 1
    65   20   62 1
    66   21   63 1
    67   23   64 1
    68   23   65 1
    69   24   66 1
    70   24   67 1
    71   25   68 1
    72   25   69 1
    73   26   70 1
    74   26   71 1
    75   27   72 1
    76   27   73 1
    77   28   74 1
    78   31   75 1
    79   31   76 1
    80   32   77 1
    81   32   78 1
    82   33   79 1
    83   34   80 1
@<TRIPOS>MOLECULE
1a46_ligand_219
   80    83     0     0     0
SMALL
USER_CHARGES

mmff94s_NoEstat = 85.53
@<TRIPOS>ATOM
      1 C1         -2.6445   10.2618   -2.2387 C.ar      1 <0>        -0.1300
      2 C2         -2.3767    9.6884   -0.9957 C.ar      1 <0>        -0.1323
      3 C3         -2.1497    9.6701   -3.4009 C.ar      1 <0>        -0.1309
      4 C4         -1.6141    8.5233   -0.9148 C.ar      1 <0>        -0.1275
      5 C5         -1.3871    8.5049   -3.3201 C.ar      1 <0>        -0.1272
      6 C6         -1.1243    7.9391   -2.0776 C.ar      1 <0>        -0.0843
      7 C7          2.0326    5.7272   -1.7627 C.2       1 <0>         0.6709
      8 C8          5.2358    2.3798    1.5634 C.2       1 <0>         0.4867
      9 C9          4.0737    1.7586    0.8450 C.2       1 <0>         0.5883
     10 C10         4.7954    4.5647   -0.6048 C.2       1 <0>         0.6572
     11 C11         2.7850   -2.8611    2.0259 C.3       1 <0>        -0.0802
     12 C12         3.9909   -2.6832    1.1072 C.3       1 <0>        -0.0765
     13 C13         2.1882   -1.5212    2.4484 C.3       1 <0>        -0.0774
     14 C14         3.6545   -1.8060   -0.0995 C.3       1 <0>        -0.0953
     15 C15         1.8557   -0.6469    1.2385 C.3       1 <0>        -0.0906
     16 C16         5.5346    5.5870   -2.7713 C.3       1 <0>        -0.0871
     17 C17         1.6625    7.8714   -3.0437 C.3       1 <0>        -0.0716
     18 C18         5.3303    7.0689   -2.4625 C.3       1 <0>         0.1333
     19 C19         3.1731    7.8019   -3.3266 C.3       1 <0>         0.1246
     20 C20         4.4137    4.9104   -2.0113 C.3       1 <0>         0.0606
     21 C21         3.0526   -0.4516    0.2982 C.3       1 <0>         0.1012
     22 C22         1.1885    7.0064   -1.8522 C.3       1 <0>         0.1554
     23 C23        -0.3040    6.6858   -1.9906 C.3       1 <0>        -0.0356
     24 C24         8.0800    4.9598    0.7851 C.3       1 <0>        -0.0795
     25 C25         8.7880    6.0338    1.6192 C.3       1 <0>        -0.1203
     26 C26         6.9719    4.2276    1.5544 C.3       1 <0>        -0.0920
     27 C27         9.9095    6.7454    0.8629 C.3       1 <0>         0.1502
     28 C28         6.2906    3.1130    0.7514 C.3       1 <0>         0.0224
     29 N1          3.3921    5.9372   -1.9343 N.am      1 <0>        -0.3553
     30 N2          3.8913    7.2279   -2.1903 N.3       1 <0>        -0.4320
     31 N3          1.3958    7.7147   -0.5806 N.3       1 <0>        -0.9031
     32 N4         10.5470    7.7366    1.7233 N.3       1 <0>        -0.9068
     33 N5          4.0688    0.3864    0.9385 N.am      1 <0>        -0.5526
     34 N6          5.7762    3.5917   -0.5046 N.am      1 <0>        -0.5576
     35 O1          1.5345    4.6231   -1.5437 O.2       1 <0>        -0.6710
     36 O2          5.3022    2.1819    2.7699 O.2       1 <0>        -0.4901
     37 O3          3.3003    2.4996    0.2605 O.2       1 <0>        -0.5902
     38 O4          4.2448    5.1367    0.3286 O.2       1 <0>        -0.5833
     39 H1         -3.2382   11.1691   -2.3016 H         1 <0>         0.1320
     40 H2         -2.7620   10.1493   -0.0908 H         1 <0>         0.1324
     41 H3         -2.3582   10.1168   -4.3687 H         1 <0>         0.1328
     42 H4         -1.4106    8.0836    0.0580 H         1 <0>         0.1324
     43 H5         -1.0058    8.0510   -4.2309 H         1 <0>         0.1434
     44 H6          2.0191   -3.4518    1.5083 H         1 <0>         0.0405
     45 H7          3.0792   -3.4306    2.9148 H         1 <0>         0.0421
     46 H8          4.8179   -2.2361    1.6718 H         1 <0>         0.0362
     47 H9          4.3372   -3.6641    0.7620 H         1 <0>         0.0439
     48 H10         1.2800   -1.6931    3.0373 H         1 <0>         0.0350
     49 H11         2.8950   -0.9962    3.1023 H         1 <0>         0.0428
     50 H12         4.5607   -1.6547   -0.6985 H         1 <0>         0.0663
     51 H13         2.9380   -2.3402   -0.7364 H         1 <0>         0.0466
     52 H14         1.0358   -1.1145    0.6784 H         1 <0>         0.0493
     53 H15         1.4878    0.3256    1.5875 H         1 <0>         0.0520
     54 H16         5.4011    5.4209   -3.8475 H         1 <0>         0.0915
     55 H17         6.5319    5.2374   -2.4876 H         1 <0>         0.0601
     56 H18         1.3705    8.9173   -2.8778 H         1 <0>         0.0688
     57 H19         1.1370    7.5576   -3.9559 H         1 <0>         0.0630
     58 H20         5.8802    7.3284   -1.5498 H         1 <0>         0.0807
     59 H21         5.7080    7.7145   -3.2631 H         1 <0>         0.0380
     60 H22         3.3395    7.2079   -4.2360 H         1 <0>         0.0484
     61 H23         3.5406    8.8134   -3.5374 H         1 <0>         0.0697
     62 H24         4.0335    4.0099   -2.5019 H         1 <0>         0.0843
     63 H25         2.7361    0.0920   -0.5981 H         1 <0>         0.0831
     64 H26        -0.6181    6.0842   -1.1357 H         1 <0>         0.0704
     65 H27        -0.4536    6.0709   -2.8800 H         1 <0>         0.0718
     66 H28         7.6494    5.4516   -0.0948 H         1 <0>         0.0606
     67 H29         8.8216    4.2418    0.4157 H         1 <0>         0.0458
     68 H30         8.0356    6.7709    1.9287 H         1 <0>         0.0375
     69 H31         9.1825    5.5824    2.5383 H         1 <0>         0.0392
     70 H32         6.2171    4.9575    1.8728 H         1 <0>         0.0606
     71 H33         7.3929    3.7874    2.4660 H         1 <0>         0.0579
     72 H34         9.5108    7.2416   -0.0285 H         1 <0>         0.0571
     73 H35        10.6706    6.0303    0.5375 H         1 <0>         0.0503
     74 H36         7.0421    2.3587    0.4881 H         1 <0>         0.0993
     75 H37         2.1998    8.2929   -0.4996 H         1 <0>         0.3700
     76 H38         0.8492    7.4324    0.1998 H         1 <0>         0.3660
     77 H39        11.2163    8.3531    1.3147 H         1 <0>         0.3465
     78 H40        10.4498    7.6340    2.7108 H         1 <0>         0.3446
     79 H41         4.8027   -0.0660    1.4755 H         1 <0>         0.3148
     80 H42         6.1527    3.1949   -1.3636 H         1 <0>         0.3220
@<TRIPOS>BOND
     1    1    2 ar
     2    1    3 ar
     3    2    4 ar
     4    3    5 ar
     5    4    6 ar
     6    5    6 ar
     7    6   23 1
     8    7   22 1
     9    7   29 am
    10    7   35 2
    11    8    9 1
    12    8   28 1
    13    8   36 2
    14    9   33 am
    15    9   37 2
    16   10   20 1
    17   10   34 am
    18   10   38 2
    19   11   12 1
    20   11   13 1
    21   12   14 1
    22   13   15 1
    23   14   21 1
    24   15   21 1
    25   16   18 1
    26   16   20 1
    27   17   19 1
    28   17   22 1
    29   18   30 1
    30   19   30 1
    31   20   29 1
    32   21   33 1
    33   22   23 1
    34   22   31 1
    35   24   25 1
    36   24   26 1
    37   25   27 1
    38   26   28 1
    39   27   32 1
    40   28   34 1
    41   29   30 1
    42    1   39 1
    43    2   40 1
    44    3   41 1
    45    4   42 1
    46    5   43 1
    47   11   44 1
    48   11   45 1
    49   12   46 1
    50   12   47 1
    51   13   48 1
    52   13   49 1
    53   14   50 1
    54   14   51 1
    55   15   52 1
    56   15   53 1
    57   16   54 1
    58   16   55 1
    59   17   56 1
    60   17   57 1
    61   18   58 1
    62   18   59 1
    63   19   60 1
    64   19   61 1
    65   20   62 1
    66   21   63 1
    67   23   64 1
    68   23   65 1
    69   24   66 1
    70   24   67 1
    71   25   68 1
    72   25   69 1
    73   26   70 1
    74   26   71 1
    75   27   72 1
    76   27   73 1
    77   28   74 1
    78   31   75 1
    79   31   76 1
    80   32   77 1
    81   32   78 1
    82   33   79 1
    83   34   80 1
@<TRIPOS>MOLECULE
1a46_ligand_220
   80    83     0     0     0
SMALL
USER_CHARGES

mmff94s_NoEstat = 85.54
@<TRIPOS>ATOM
      1 C1         11.0121    9.2104   -7.9325 C.ar      1 <0>        -0.1300
      2 C2         11.5385    8.8832   -6.6829 C.ar      1 <0>        -0.1323
      3 C3          9.6345    9.1559   -8.1449 C.ar      1 <0>        -0.1309
      4 C4         10.6874    8.5015   -5.6458 C.ar      1 <0>        -0.1275
      5 C5          8.7834    8.7742   -7.1078 C.ar      1 <0>        -0.1272
      6 C6          9.3154    8.4495   -5.8650 C.ar      1 <0>        -0.0843
      7 C7          7.2411    6.0968   -3.6024 C.2       1 <0>         0.6709
      8 C8          5.2358    2.3798    1.5634 C.2       1 <0>         0.4867
      9 C9          5.6522    1.1980    2.3894 C.2       1 <0>         0.5883
     10 C10         6.5256    3.6321   -1.6689 C.2       1 <0>         0.6572
     11 C11         2.1315   -1.7630    4.1879 C.3       1 <0>        -0.0802
     12 C12         2.3788   -0.4451    4.9173 C.3       1 <0>        -0.0765
     13 C13         3.0395   -1.9195    2.9710 C.3       1 <0>        -0.0774
     14 C14         3.8535   -0.2727    5.2836 C.3       1 <0>        -0.0953
     15 C15         4.5128   -1.7440    3.3420 C.3       1 <0>        -0.0906
     16 C16         5.2113    3.0694   -3.7284 C.3       1 <0>        -0.0871
     17 C17         7.6012    6.0599   -6.1012 C.3       1 <0>        -0.0716
     18 C18         6.3446    2.7580   -4.7039 C.3       1 <0>         0.1333
     19 C19         6.8355    4.7264   -6.0536 C.3       1 <0>         0.1246
     20 C20         5.7868    4.1659   -2.8575 C.3       1 <0>         0.0606
     21 C21         4.7887   -0.4252    4.0765 C.3       1 <0>         0.1012
     22 C22         8.1773    6.5224   -4.7422 C.3       1 <0>         0.1554
     23 C23         8.4000    8.0389   -4.7494 C.3       1 <0>        -0.0356
     24 C24         7.6485    3.7409    2.8432 C.3       1 <0>        -0.0795
     25 C25         8.2774    4.8743    3.6620 C.3       1 <0>        -0.1203
     26 C26         6.9719    4.2276    1.5544 C.3       1 <0>        -0.0920
     27 C27         8.9284    4.3945    4.9589 C.3       1 <0>         0.1502
     28 C28         6.2906    3.1130    0.7514 C.3       1 <0>         0.0224
     29 N1          6.7674    4.7991   -3.7183 N.am      1 <0>        -0.3553
     30 N2          7.1280    4.0001   -4.8193 N.3       1 <0>        -0.4320
     31 N3          9.4643    5.8648   -4.4722 N.3       1 <0>        -0.9031
     32 N4          9.4866    5.5266    5.6910 N.3       1 <0>        -0.9068
     33 N5          4.6259    0.7077    3.1628 N.am      1 <0>        -0.5526
     34 N6          5.7762    3.5917   -0.5046 N.am      1 <0>        -0.5576
     35 O1          6.9567    6.8465   -2.6685 O.2       1 <0>        -0.6710
     36 O2          4.0675    2.7325    1.6631 O.2       1 <0>        -0.4901
     37 O3          6.8111    0.8244    2.3100 O.2       1 <0>        -0.5902
     38 O4          7.6924    3.2783   -1.7917 O.2       1 <0>        -0.5833
     39 H1         11.6747    9.5075   -8.7400 H         1 <0>         0.1320
     40 H2         12.6111    8.9257   -6.5176 H         1 <0>         0.1324
     41 H3          9.2248    9.4105   -9.1180 H         1 <0>         0.1328
     42 H4         11.1066    8.2484   -4.6756 H         1 <0>         0.1324
     43 H5          7.7115    8.7346   -7.2826 H         1 <0>         0.1434
     44 H6          2.3044   -2.5975    4.8787 H         1 <0>         0.0405
     45 H7          1.0827   -1.8207    3.8755 H         1 <0>         0.0421
     46 H8          2.0536    0.3896    4.2846 H         1 <0>         0.0362
     47 H9          1.7685   -0.4091    5.8271 H         1 <0>         0.0439
     48 H10         2.8890   -2.9095    2.5254 H         1 <0>         0.0350
     49 H11         2.7588   -1.1830    2.2084 H         1 <0>         0.0428
     50 H12         3.9963    0.7098    5.7496 H         1 <0>         0.0663
     51 H13         4.1209   -1.0239    6.0377 H         1 <0>         0.0466
     52 H14         4.8181   -2.5798    3.9844 H         1 <0>         0.0493
     53 H15         5.1225   -1.8035    2.4322 H         1 <0>         0.0520
     54 H16         4.3507    3.4578   -4.2870 H         1 <0>         0.0915
     55 H17         4.8908    2.1856   -3.1683 H         1 <0>         0.0601
     56 H18         8.4120    5.9885   -6.8390 H         1 <0>         0.0688
     57 H19         6.9149    6.8257   -6.4876 H         1 <0>         0.0630
     58 H20         6.9926    1.9855   -4.2725 H         1 <0>         0.0807
     59 H21         5.9735    2.3729   -5.6602 H         1 <0>         0.0380
     60 H22         5.7592    4.9288   -6.1435 H         1 <0>         0.0484
     61 H23         7.1185    4.1245   -6.9255 H         1 <0>         0.0697
     62 H24         5.0406    4.8864   -2.5107 H         1 <0>         0.0843
     63 H25         5.8317   -0.3960    4.4085 H         1 <0>         0.0831
     64 H26         8.8151    8.3408   -3.7861 H         1 <0>         0.0704
     65 H27         7.4343    8.5386   -4.8464 H         1 <0>         0.0718
     66 H28         8.4445    3.0306    2.5915 H         1 <0>         0.0606
     67 H29         6.9275    3.2007    3.4679 H         1 <0>         0.0458
     68 H30         9.0354    5.3625    3.0356 H         1 <0>         0.0375
     69 H31         7.5157    5.6329    3.8824 H         1 <0>         0.0392
     70 H32         7.7210    4.7221    0.9235 H         1 <0>         0.0606
     71 H33         6.2174    4.9831    1.8035 H         1 <0>         0.0579
     72 H34         9.7251    3.6753    4.7403 H         1 <0>         0.0571
     73 H35         8.1937    3.8977    5.5994 H         1 <0>         0.0503
     74 H36         7.0421    2.3587    0.4881 H         1 <0>         0.0993
     75 H37         9.5764    4.9261   -4.7778 H         1 <0>         0.3700
     76 H38        10.0811    6.3037   -3.8286 H         1 <0>         0.3660
     77 H39        10.0430    5.3371    6.4969 H         1 <0>         0.3465
     78 H40         9.1331    6.4373    5.4892 H         1 <0>         0.3446
     79 H41         3.7145    1.1511    3.0972 H         1 <0>         0.3148
     80 H42         4.8120    3.9176   -0.5391 H         1 <0>         0.3220
@<TRIPOS>BOND
     1    1    2 ar
     2    1    3 ar
     3    2    4 ar
     4    3    5 ar
     5    4    6 ar
     6    5    6 ar
     7    6   23 1
     8    7   22 1
     9    7   29 am
    10    7   35 2
    11    8    9 1
    12    8   28 1
    13    8   36 2
    14    9   33 am
    15    9   37 2
    16   10   20 1
    17   10   34 am
    18   10   38 2
    19   11   12 1
    20   11   13 1
    21   12   14 1
    22   13   15 1
    23   14   21 1
    24   15   21 1
    25   16   18 1
    26   16   20 1
    27   17   19 1
    28   17   22 1
    29   18   30 1
    30   19   30 1
    31   20   29 1
    32   21   33 1
    33   22   23 1
    34   22   31 1
    35   24   25 1
    36   24   26 1
    37   25   27 1
    38   26   28 1
    39   27   32 1
    40   28   34 1
    41   29   30 1
    42    1   39 1
    43    2   40 1
    44    3   41 1
    45    4   42 1
    46    5   43 1
    47   11   44 1
    48   11   45 1
    49   12   46 1
    50   12   47 1
    51   13   48 1
    52   13   49 1
    53   14   50 1
    54   14   51 1
    55   15   52 1
    56   15   53 1
    57   16   54 1
    58   16   55 1
    59   17   56 1
    60   17   57 1
    61   18   58 1
    62   18   59 1
    63   19   60 1
    64   19   61 1
    65   20   62 1
    66   21   63 1
    67   23   64 1
    68   23   65 1
    69   24   66 1
    70   24   67 1
    71   25   68 1
    72   25   69 1
    73   26   70 1
    74   26   71 1
    75   27   72 1
    76   27   73 1
    77   28   74 1
    78   31   75 1
    79   31   76 1
    80   32   77 1
    81   32   78 1
    82   33   79 1
    83   34   80 1
@<TRIPOS>MOLECULE
1a46_ligand_221
   80    83     0     0     0
SMALL
USER_CHARGES

mmff94s_NoEstat = 85.56
@<TRIPOS>ATOM
      1 C1         -6.7822    9.5030   -7.7682 C.ar      1 <0>        -0.1300
      2 C2         -5.4163    9.7853   -7.7613 C.ar      1 <0>        -0.1323
      3 C3         -7.2347    8.2371   -7.3962 C.ar      1 <0>        -0.1309
      4 C4         -4.5027    8.8017   -7.3825 C.ar      1 <0>        -0.1275
      5 C5         -6.3211    7.2534   -7.0174 C.ar      1 <0>        -0.1272
      6 C6         -4.9611    7.5422   -7.0130 C.ar      1 <0>        -0.0843
      7 C7         -2.5118    4.5743   -7.4005 C.2       1 <0>         0.6709
      8 C8          2.7796    3.2097   -6.1637 C.2       1 <0>         0.4867
      9 C9          2.2829    2.0299   -5.3801 C.2       1 <0>         0.5883
     10 C10        -0.0591    2.8141   -8.5012 C.2       1 <0>         0.6572
     11 C11        -2.1182    0.0637   -2.9350 C.3       1 <0>        -0.0802
     12 C12        -1.2822   -0.6402   -4.0001 C.3       1 <0>        -0.0765
     13 C13        -1.2651    0.9841   -2.0667 C.3       1 <0>        -0.0774
     14 C14        -0.4933    0.3571   -4.8469 C.3       1 <0>        -0.0953
     15 C15        -0.4755    1.9830   -2.9108 C.3       1 <0>        -0.0906
     16 C16        -2.0373    1.4899   -9.2879 C.3       1 <0>        -0.0871
     17 C17        -4.7351    5.0124   -8.5142 C.3       1 <0>        -0.0716
     18 C18        -2.6100    2.4429  -10.3352 C.3       1 <0>         0.1333
     19 C19        -4.4053    3.7655   -9.3528 C.3       1 <0>         0.1246
     20 C20        -1.4789    2.4202   -8.2321 C.3       1 <0>         0.0606
     21 C21         0.3712    1.2712   -3.9717 C.3       1 <0>         0.1012
     22 C22        -3.5177    5.6586   -7.8120 C.3       1 <0>         0.1554
     23 C23        -3.9784    6.4841   -6.6055 C.3       1 <0>        -0.0356
     24 C24         1.5857    6.0302   -6.5865 C.3       1 <0>        -0.0795
     25 C25         1.6811    7.5259   -6.9095 C.3       1 <0>        -0.1203
     26 C26         2.1570    5.1335   -7.6933 C.3       1 <0>        -0.0920
     27 C27         1.0885    8.4192   -5.8200 C.3       1 <0>         0.1502
     28 C28         2.0196    3.6328   -7.4097 C.3       1 <0>         0.0224
     29 N1         -2.2867    3.6162   -8.3768 N.am      1 <0>        -0.3553
     30 N2         -2.9688    3.6719   -9.6065 N.3       1 <0>        -0.4320
     31 N3         -2.7962    6.5469   -8.7349 N.3       1 <0>        -0.9031
     32 N4          1.1980    9.8225   -6.2046 N.3       1 <0>        -0.9068
     33 N5          1.0538    2.2579   -4.8066 N.am      1 <0>        -0.5526
     34 N6          0.6426    3.2153   -7.3763 N.am      1 <0>        -0.5576
     35 O1         -1.9526    4.5762   -6.3040 O.2       1 <0>        -0.6710
     36 O2          3.8302    3.7133   -5.7870 O.2       1 <0>        -0.4901
     37 O3          2.9978    1.0431   -5.3175 O.2       1 <0>        -0.5902
     38 O4          0.3766    2.7593   -9.6452 O.2       1 <0>        -0.5833
     39 H1         -7.4936   10.2689   -8.0633 H         1 <0>         0.1320
     40 H2         -5.0642   10.7711   -8.0510 H         1 <0>         0.1324
     41 H3         -8.2983    8.0173   -7.4018 H         1 <0>         0.1328
     42 H4         -3.4404    9.0308   -7.3802 H         1 <0>         0.1324
     43 H5         -6.6828    6.2700   -6.7292 H         1 <0>         0.1434
     44 H6         -2.9082    0.6502   -3.4206 H         1 <0>         0.0405
     45 H7         -2.6154   -0.6819   -2.3042 H         1 <0>         0.0421
     46 H8         -0.5872   -1.3379   -3.5168 H         1 <0>         0.0362
     47 H9         -1.9356   -1.2364   -4.6469 H         1 <0>         0.0439
     48 H10        -1.9062    1.5239   -1.3606 H         1 <0>         0.0350
     49 H11        -0.5692    0.3813   -1.4701 H         1 <0>         0.0428
     50 H12         0.1379   -0.1854   -5.5610 H         1 <0>         0.0663
     51 H13        -1.1901    0.9595   -5.4444 H         1 <0>         0.0466
     52 H14        -1.1708    2.6823   -3.3935 H         1 <0>         0.0493
     53 H15         0.1688    2.5859   -2.2595 H         1 <0>         0.0520
     54 H16        -2.8519    0.8938   -8.8584 H         1 <0>         0.0915
     55 H17        -1.2935    0.8073   -9.7102 H         1 <0>         0.0601
     56 H18        -5.2314    5.7584   -9.1499 H         1 <0>         0.0688
     57 H19        -5.4801    4.7212   -7.7613 H         1 <0>         0.0630
     58 H20        -1.8289    2.6942  -11.0628 H         1 <0>         0.0807
     59 H21        -3.4401    1.9950  -10.8925 H         1 <0>         0.0380
     60 H22        -4.7690    2.8732   -8.8248 H         1 <0>         0.0484
     61 H23        -4.9562    3.8199  -10.2995 H         1 <0>         0.0697
     62 H24        -1.5441    2.0192   -7.2167 H         1 <0>         0.0843
     63 H25         1.1581    0.6834   -3.4853 H         1 <0>         0.0831
     64 H26        -3.1056    6.9377   -6.1322 H         1 <0>         0.0704
     65 H27        -4.4243    5.8149   -5.8674 H         1 <0>         0.0718
     66 H28         2.1358    5.8550   -5.6547 H         1 <0>         0.0606
     67 H29         0.5392    5.7688   -6.3906 H         1 <0>         0.0458
     68 H30         2.7419    7.7748   -7.0444 H         1 <0>         0.0375
     69 H31         1.1870    7.7255   -7.8687 H         1 <0>         0.0392
     70 H32         3.2164    5.3787   -7.8393 H         1 <0>         0.0606
     71 H33         1.6466    5.3535   -8.6384 H         1 <0>         0.0579
     72 H34         1.6137    8.2608   -4.8719 H         1 <0>         0.0571
     73 H35         0.0315    8.1861   -5.6617 H         1 <0>         0.0503
     74 H36         2.4714    3.0747   -8.2388 H         1 <0>         0.0993
     75 H37        -2.7475    6.2791   -9.6905 H         1 <0>         0.3700
     76 H38        -2.2234    7.2564   -8.3400 H         1 <0>         0.3660
     77 H39         0.9557   10.5154   -5.5293 H         1 <0>         0.3465
     78 H40         1.3102   10.0373   -7.1723 H         1 <0>         0.3446
     79 H41         0.6002    3.1517   -4.9705 H         1 <0>         0.3148
     80 H42         0.1596    3.2148   -6.4798 H         1 <0>         0.3220
@<TRIPOS>BOND
     1    1    2 ar
     2    1    3 ar
     3    2    4 ar
     4    3    5 ar
     5    4    6 ar
     6    5    6 ar
     7    6   23 1
     8    7   22 1
     9    7   29 am
    10    7   35 2
    11    8    9 1
    12    8   28 1
    13    8   36 2
    14    9   33 am
    15    9   37 2
    16   10   20 1
    17   10   34 am
    18   10   38 2
    19   11   12 1
    20   11   13 1
    21   12   14 1
    22   13   15 1
    23   14   21 1
    24   15   21 1
    25   16   18 1
    26   16   20 1
    27   17   19 1
    28   17   22 1
    29   18   30 1
    30   19   30 1
    31   20   29 1
    32   21   33 1
    33   22   23 1
    34   22   31 1
    35   24   25 1
    36   24   26 1
    37   25   27 1
    38   26   28 1
    39   27   32 1
    40   28   34 1
    41   29   30 1
    42    1   39 1
    43    2   40 1
    44    3   41 1
    45    4   42 1
    46    5   43 1
    47   11   44 1
    48   11   45 1
    49   12   46 1
    50   12   47 1
    51   13   48 1
    52   13   49 1
    53   14   50 1
    54   14   51 1
    55   15   52 1
    56   15   53 1
    57   16   54 1
    58   16   55 1
    59   17   56 1
    60   17   57 1
    61   18   58 1
    62   18   59 1
    63   19   60 1
    64   19   61 1
    65   20   62 1
    66   21   63 1
    67   23   64 1
    68   23   65 1
    69   24   66 1
    70   24   67 1
    71   25   68 1
    72   25   69 1
    73   26   70 1
    74   26   71 1
    75   27   72 1
    76   27   73 1
    77   28   74 1
    78   31   75 1
    79   31   76 1
    80   32   77 1
    81   32   78 1
    82   33   79 1
    83   34   80 1
@<TRIPOS>MOLECULE
1a46_ligand_222
   80    83     0     0     0
SMALL
USER_CHARGES

mmff94s_NoEstat = 85.57
@<TRIPOS>ATOM
      1 C1         -3.7305   -5.9204  -11.3537 C.ar      1 <0>        -0.1300
      2 C2         -2.4262   -5.5183  -11.6410 C.ar      1 <0>        -0.1323
      3 C3         -4.6750   -4.9808  -10.9404 C.ar      1 <0>        -0.1309
      4 C4         -2.0662   -4.1766  -11.5149 C.ar      1 <0>        -0.1275
      5 C5         -4.3150   -3.6391  -10.8142 C.ar      1 <0>        -0.1272
      6 C6         -3.0129   -3.2458  -11.1023 C.ar      1 <0>        -0.0843
      7 C7         -1.7147   -0.0189   -9.4111 C.2       1 <0>         0.6709
      8 C8          2.7796    3.2097   -6.1637 C.2       1 <0>         0.4867
      9 C9          2.0233    2.5606   -5.0416 C.2       1 <0>         0.5883
     10 C10         0.2181    1.9581   -7.7739 C.2       1 <0>         0.6572
     11 C11         0.4928    3.3165    0.0869 C.3       1 <0>        -0.0802
     12 C12         1.8763    2.6943   -0.0795 C.3       1 <0>        -0.0765
     13 C13        -0.4186    2.9867   -1.0919 C.3       1 <0>        -0.0774
     14 C14         2.5152    3.0886   -1.4101 C.3       1 <0>        -0.0953
     15 C15         0.2175    3.3821   -2.4235 C.3       1 <0>        -0.0906
     16 C16        -1.7326    1.7367   -6.2145 C.3       1 <0>        -0.0871
     17 C17        -3.1871   -1.8587   -8.5042 C.3       1 <0>        -0.0716
     18 C18        -1.5889    0.2745   -5.7969 C.3       1 <0>         0.1333
     19 C19        -3.0480   -1.1203   -7.1617 C.3       1 <0>         0.1246
     20 C20        -1.2590    1.7411   -7.6524 C.3       1 <0>         0.0606
     21 C21         1.6014    2.7453   -2.5917 C.3       1 <0>         0.1012
     22 C22        -2.1125   -1.4947   -9.5555 C.3       1 <0>         0.1554
     23 C23        -2.6257   -1.8026  -10.9666 C.3       1 <0>        -0.0356
     24 C24         1.5857    6.0302   -6.5865 C.3       1 <0>        -0.0795
     25 C25         1.6811    7.5259   -6.9095 C.3       1 <0>        -0.1203
     26 C26         2.1570    5.1335   -7.6933 C.3       1 <0>        -0.0920
     27 C27         1.0885    8.4192   -5.8200 C.3       1 <0>         0.1502
     28 C28         2.0196    3.6328   -7.4097 C.3       1 <0>         0.0224
     29 N1         -1.5278    0.3875   -8.0990 N.am      1 <0>        -0.3553
     30 N2         -1.7250   -0.5121   -7.0349 N.3       1 <0>        -0.4320
     31 N3         -0.8818   -2.2667   -9.3297 N.3       1 <0>        -0.9031
     32 N4          1.8018    8.2205   -4.5627 N.3       1 <0>        -0.9068
     33 N5          2.2102    3.2024   -3.8395 N.am      1 <0>        -0.5526
     34 N6          0.6426    3.2153   -7.3763 N.am      1 <0>        -0.5576
     35 O1         -1.5651    0.7213  -10.3831 O.2       1 <0>        -0.6710
     36 O2          3.9949    3.2835   -6.0334 O.2       1 <0>        -0.4901
     37 O3          1.3678    1.5632   -5.2954 O.2       1 <0>        -0.5902
     38 O4          0.9290    1.0536   -8.1959 O.2       1 <0>        -0.5833
     39 H1         -4.0108   -6.9651  -11.4519 H         1 <0>         0.1320
     40 H2         -1.6909   -6.2500  -11.9629 H         1 <0>         0.1324
     41 H3         -5.6906   -5.2940  -10.7166 H         1 <0>         0.1328
     42 H4         -1.0476   -3.8726  -11.7408 H         1 <0>         0.1324
     43 H5         -5.0575   -2.9141  -10.4915 H         1 <0>         0.1434
     44 H6          0.0368    2.9585    1.0168 H         1 <0>         0.0405
     45 H7          0.5918    4.4053    0.1772 H         1 <0>         0.0421
     46 H8          2.5234    3.0081    0.7472 H         1 <0>         0.0362
     47 H9          1.7946    1.6018   -0.0247 H         1 <0>         0.0439
     48 H10        -0.6357    1.9115   -1.0969 H         1 <0>         0.0350
     49 H11        -1.3767    3.5054   -0.9731 H         1 <0>         0.0428
     50 H12         2.7335    4.1647   -1.4047 H         1 <0>         0.0663
     51 H13         3.4791    2.5773   -1.5212 H         1 <0>         0.0466
     52 H14        -0.4376    3.0776   -3.2487 H         1 <0>         0.0493
     53 H15         0.2984    4.4757   -2.4784 H         1 <0>         0.0520
     54 H16        -2.7915    2.0208   -6.1758 H         1 <0>         0.0915
     55 H17        -1.1685    2.4118   -5.5637 H         1 <0>         0.0601
     56 H18        -3.1756   -2.9428   -8.3269 H         1 <0>         0.0688
     57 H19        -4.1842   -1.6345   -8.9071 H         1 <0>         0.0630
     58 H20        -0.5812    0.1087   -5.3971 H         1 <0>         0.0807
     59 H21        -2.2993   -0.0031   -5.0104 H         1 <0>         0.0380
     60 H22        -3.8377   -0.3598   -7.0886 H         1 <0>         0.0484
     61 H23        -3.2188   -1.8335   -6.3463 H         1 <0>         0.0697
     62 H24        -1.7729    2.4744   -8.2803 H         1 <0>         0.0843
     63 H25         1.5010    1.6573   -2.6792 H         1 <0>         0.0831
     64 H26        -1.8489   -1.5475  -11.6898 H         1 <0>         0.0704
     65 H27        -3.4798   -1.1578  -11.1818 H         1 <0>         0.0718
     66 H28         2.1358    5.8550   -5.6547 H         1 <0>         0.0606
     67 H29         0.5392    5.7688   -6.3906 H         1 <0>         0.0458
     68 H30         2.7419    7.7748   -7.0444 H         1 <0>         0.0375
     69 H31         1.1870    7.7255   -7.8687 H         1 <0>         0.0392
     70 H32         3.2164    5.3787   -7.8393 H         1 <0>         0.0606
     71 H33         1.6466    5.3535   -8.6384 H         1 <0>         0.0579
     72 H34         0.0275    8.1885   -5.6755 H         1 <0>         0.0571
     73 H35         1.1682    9.4739   -6.0992 H         1 <0>         0.0503
     74 H36         2.4714    3.0747   -8.2388 H         1 <0>         0.0993
     75 H37        -0.6260   -2.4640   -8.3900 H         1 <0>         0.3700
     76 H38        -0.2603   -2.3800  -10.0968 H         1 <0>         0.3660
     77 H39         1.4387    8.6562   -3.7421 H         1 <0>         0.3465
     78 H40         2.7216    7.8360   -4.5996 H         1 <0>         0.3446
     79 H41         2.7974    4.0308   -3.8179 H         1 <0>         0.3148
     80 H42        -0.0552    3.8781   -7.0434 H         1 <0>         0.3220
@<TRIPOS>BOND
     1    1    2 ar
     2    1    3 ar
     3    2    4 ar
     4    3    5 ar
     5    4    6 ar
     6    5    6 ar
     7    6   23 1
     8    7   22 1
     9    7   29 am
    10    7   35 2
    11    8    9 1
    12    8   28 1
    13    8   36 2
    14    9   33 am
    15    9   37 2
    16   10   20 1
    17   10   34 am
    18   10   38 2
    19   11   12 1
    20   11   13 1
    21   12   14 1
    22   13   15 1
    23   14   21 1
    24   15   21 1
    25   16   18 1
    26   16   20 1
    27   17   19 1
    28   17   22 1
    29   18   30 1
    30   19   30 1
    31   20   29 1
    32   21   33 1
    33   22   23 1
    34   22   31 1
    35   24   25 1
    36   24   26 1
    37   25   27 1
    38   26   28 1
    39   27   32 1
    40   28   34 1
    41   29   30 1
    42    1   39 1
    43    2   40 1
    44    3   41 1
    45    4   42 1
    46    5   43 1
    47   11   44 1
    48   11   45 1
    49   12   46 1
    50   12   47 1
    51   13   48 1
    52   13   49 1
    53   14   50 1
    54   14   51 1
    55   15   52 1
    56   15   53 1
    57   16   54 1
    58   16   55 1
    59   17   56 1
    60   17   57 1
    61   18   58 1
    62   18   59 1
    63   19   60 1
    64   19   61 1
    65   20   62 1
    66   21   63 1
    67   23   64 1
    68   23   65 1
    69   24   66 1
    70   24   67 1
    71   25   68 1
    72   25   69 1
    73   26   70 1
    74   26   71 1
    75   27   72 1
    76   27   73 1
    77   28   74 1
    78   31   75 1
    79   31   76 1
    80   32   77 1
    81   32   78 1
    82   33   79 1
    83   34   80 1
@<TRIPOS>MOLECULE
1a46_ligand_223
   80    83     0     0     0
SMALL
USER_CHARGES

mmff94s_NoEstat = 85.64
@<TRIPOS>ATOM
      1 C1         -3.7305   -5.9204  -11.3537 C.ar      1 <0>        -0.1300
      2 C2         -2.4262   -5.5183  -11.6410 C.ar      1 <0>        -0.1323
      3 C3         -4.6750   -4.9808  -10.9404 C.ar      1 <0>        -0.1309
      4 C4         -2.0662   -4.1766  -11.5149 C.ar      1 <0>        -0.1275
      5 C5         -4.3150   -3.6391  -10.8142 C.ar      1 <0>        -0.1272
      6 C6         -3.0129   -3.2458  -11.1023 C.ar      1 <0>        -0.0843
      7 C7         -1.7147   -0.0189   -9.4111 C.2       1 <0>         0.6709
      8 C8          2.7796    3.2097   -6.1637 C.2       1 <0>         0.4867
      9 C9          4.2587    3.4565   -6.1009 C.2       1 <0>         0.5883
     10 C10         0.2181    1.9581   -7.7739 C.2       1 <0>         0.6572
     11 C11         8.6310    2.5015   -3.0700 C.3       1 <0>        -0.0802
     12 C12         7.8454    3.7500   -2.6788 C.3       1 <0>        -0.0765
     13 C13         8.4652    2.1728   -4.5510 C.3       1 <0>        -0.0774
     14 C14         6.3722    3.6332   -3.0660 C.3       1 <0>        -0.0953
     15 C15         6.9926    2.0536   -4.9400 C.3       1 <0>        -0.0906
     16 C16        -1.7326    1.7367   -6.2145 C.3       1 <0>        -0.0871
     17 C17        -3.1871   -1.8587   -8.5042 C.3       1 <0>        -0.0716
     18 C18        -1.5889    0.2745   -5.7969 C.3       1 <0>         0.1333
     19 C19        -3.0480   -1.1203   -7.1617 C.3       1 <0>         0.1246
     20 C20        -1.2590    1.7411   -7.6524 C.3       1 <0>         0.0606
     21 C21         6.2101    3.3142   -4.5563 C.3       1 <0>         0.1012
     22 C22        -2.1125   -1.4947   -9.5555 C.3       1 <0>         0.1554
     23 C23        -2.6257   -1.8026  -10.9666 C.3       1 <0>        -0.0356
     24 C24         1.5857    6.0302   -6.5865 C.3       1 <0>        -0.0795
     25 C25         1.6811    7.5259   -6.9095 C.3       1 <0>        -0.1203
     26 C26         2.1570    5.1335   -7.6933 C.3       1 <0>        -0.0920
     27 C27         1.0885    8.4192   -5.8200 C.3       1 <0>         0.1502
     28 C28         2.0196    3.6328   -7.4097 C.3       1 <0>         0.0224
     29 N1         -1.5278    0.3875   -8.0990 N.am      1 <0>        -0.3553
     30 N2         -1.7250   -0.5121   -7.0349 N.3       1 <0>        -0.4320
     31 N3         -0.8818   -2.2667   -9.3297 N.3       1 <0>        -0.9031
     32 N4          1.1980    9.8225   -6.2046 N.3       1 <0>        -0.9068
     33 N5          4.7948    3.1368   -4.8752 N.am      1 <0>        -0.5526
     34 N6          0.6426    3.2153   -7.3763 N.am      1 <0>        -0.5576
     35 O1         -1.5651    0.7213  -10.3831 O.2       1 <0>        -0.6710
     36 O2          2.2586    2.7495   -5.1557 O.2       1 <0>        -0.4901
     37 O3          4.8046    3.9148   -7.0912 O.2       1 <0>        -0.5902
     38 O4          0.9290    1.0536   -8.1959 O.2       1 <0>        -0.5833
     39 H1         -4.0108   -6.9651  -11.4519 H         1 <0>         0.1320
     40 H2         -1.6909   -6.2500  -11.9629 H         1 <0>         0.1324
     41 H3         -5.6906   -5.2940  -10.7166 H         1 <0>         0.1328
     42 H4         -1.0476   -3.8726  -11.7408 H         1 <0>         0.1324
     43 H5         -5.0575   -2.9141  -10.4915 H         1 <0>         0.1434
     44 H6          9.6927    2.6472   -2.8413 H         1 <0>         0.0405
     45 H7          8.2873    1.6516   -2.4677 H         1 <0>         0.0421
     46 H8          7.9305    3.9156   -1.5989 H         1 <0>         0.0362
     47 H9          8.2829    4.6266   -3.1722 H         1 <0>         0.0439
     48 H10         8.9392    2.9563   -5.1550 H         1 <0>         0.0350
     49 H11         8.9838    1.2351   -4.7805 H         1 <0>         0.0428
     50 H12         5.8974    2.8497   -2.4607 H         1 <0>         0.0663
     51 H13         5.8530    4.5687   -2.8245 H         1 <0>         0.0466
     52 H14         6.9106    1.8760   -6.0193 H         1 <0>         0.0493
     53 H15         6.5552    1.1756   -4.4466 H         1 <0>         0.0520
     54 H16        -2.7915    2.0208   -6.1758 H         1 <0>         0.0915
     55 H17        -1.1685    2.4118   -5.5637 H         1 <0>         0.0601
     56 H18        -3.1756   -2.9428   -8.3269 H         1 <0>         0.0688
     57 H19        -4.1842   -1.6345   -8.9071 H         1 <0>         0.0630
     58 H20        -0.5812    0.1087   -5.3971 H         1 <0>         0.0807
     59 H21        -2.2993   -0.0031   -5.0104 H         1 <0>         0.0380
     60 H22        -3.8377   -0.3598   -7.0886 H         1 <0>         0.0484
     61 H23        -3.2188   -1.8335   -6.3463 H         1 <0>         0.0697
     62 H24        -1.7729    2.4744   -8.2803 H         1 <0>         0.0843
     63 H25         6.5564    4.1631   -5.1572 H         1 <0>         0.0831
     64 H26        -1.8489   -1.5475  -11.6898 H         1 <0>         0.0704
     65 H27        -3.4798   -1.1578  -11.1818 H         1 <0>         0.0718
     66 H28         2.1358    5.8550   -5.6547 H         1 <0>         0.0606
     67 H29         0.5392    5.7688   -6.3906 H         1 <0>         0.0458
     68 H30         2.7419    7.7748   -7.0444 H         1 <0>         0.0375
     69 H31         1.1870    7.7255   -7.8687 H         1 <0>         0.0392
     70 H32         3.2164    5.3787   -7.8393 H         1 <0>         0.0606
     71 H33         1.6466    5.3535   -8.6384 H         1 <0>         0.0579
     72 H34         1.6137    8.2608   -4.8719 H         1 <0>         0.0571
     73 H35         0.0315    8.1861   -5.6617 H         1 <0>         0.0503
     74 H36         2.4714    3.0747   -8.2388 H         1 <0>         0.0993
     75 H37        -0.6260   -2.4640   -8.3900 H         1 <0>         0.3700
     76 H38        -0.2603   -2.3800  -10.0968 H         1 <0>         0.3660
     77 H39         0.9557   10.5154   -5.5293 H         1 <0>         0.3465
     78 H40         1.3102   10.0373   -7.1723 H         1 <0>         0.3446
     79 H41         4.1797    2.7606   -4.1599 H         1 <0>         0.3148
     80 H42        -0.0552    3.8781   -7.0434 H         1 <0>         0.3220
@<TRIPOS>BOND
     1    1    2 ar
     2    1    3 ar
     3    2    4 ar
     4    3    5 ar
     5    4    6 ar
     6    5    6 ar
     7    6   23 1
     8    7   22 1
     9    7   29 am
    10    7   35 2
    11    8    9 1
    12    8   28 1
    13    8   36 2
    14    9   33 am
    15    9   37 2
    16   10   20 1
    17   10   34 am
    18   10   38 2
    19   11   12 1
    20   11   13 1
    21   12   14 1
    22   13   15 1
    23   14   21 1
    24   15   21 1
    25   16   18 1
    26   16   20 1
    27   17   19 1
    28   17   22 1
    29   18   30 1
    30   19   30 1
    31   20   29 1
    32   21   33 1
    33   22   23 1
    34   22   31 1
    35   24   25 1
    36   24   26 1
    37   25   27 1
    38   26   28 1
    39   27   32 1
    40   28   34 1
    41   29   30 1
    42    1   39 1
    43    2   40 1
    44    3   41 1
    45    4   42 1
    46    5   43 1
    47   11   44 1
    48   11   45 1
    49   12   46 1
    50   12   47 1
    51   13   48 1
    52   13   49 1
    53   14   50 1
    54   14   51 1
    55   15   52 1
    56   15   53 1
    57   16   54 1
    58   16   55 1
    59   17   56 1
    60   17   57 1
    61   18   58 1
    62   18   59 1
    63   19   60 1
    64   19   61 1
    65   20   62 1
    66   21   63 1
    67   23   64 1
    68   23   65 1
    69   24   66 1
    70   24   67 1
    71   25   68 1
    72   25   69 1
    73   26   70 1
    74   26   71 1
    75   27   72 1
    76   27   73 1
    77   28   74 1
    78   31   75 1
    79   31   76 1
    80   32   77 1
    81   32   78 1
    82   33   79 1
    83   34   80 1
@<TRIPOS>MOLECULE
1a46_ligand_224
   80    83     0     0     0
SMALL
USER_CHARGES

mmff94s_NoEstat = 85.65
@<TRIPOS>ATOM
      1 C1         -6.8775    5.0901  -14.7309 C.ar      1 <0>        -0.1300
      2 C2         -5.5917    5.6294  -14.7709 C.ar      1 <0>        -0.1323
      3 C3         -7.3842    4.5832  -13.5342 C.ar      1 <0>        -0.1309
      4 C4         -4.8126    5.6616  -13.6144 C.ar      1 <0>        -0.1275
      5 C5         -6.6051    4.6154  -12.3777 C.ar      1 <0>        -0.1272
      6 C6         -5.3244    5.1544  -12.4253 C.ar      1 <0>        -0.0843
      7 C7         -2.7863    3.9453   -9.7694 C.2       1 <0>         0.6709
      8 C8          2.7796    3.2097   -6.1637 C.2       1 <0>         0.4867
      9 C9          2.0233    2.5606   -5.0416 C.2       1 <0>         0.5883
     10 C10        -0.0591    2.8141   -8.5012 C.2       1 <0>         0.6572
     11 C11        -1.8951   -1.0364   -4.0810 C.3       1 <0>        -0.0802
     12 C12        -1.8777    0.4244   -3.6398 C.3       1 <0>        -0.0765
     13 C13        -0.4885   -1.6258   -4.1333 C.3       1 <0>        -0.0774
     14 C14        -0.9490    1.2660   -4.5136 C.3       1 <0>        -0.0953
     15 C15         0.4415   -0.7869   -5.0083 C.3       1 <0>        -0.0906
     16 C16        -1.6498    0.9246   -8.0710 C.3       1 <0>        -0.0871
     17 C17        -4.5618    2.6685  -11.0314 C.3       1 <0>        -0.0716
     18 C18        -1.8952    0.4385   -9.4981 C.3       1 <0>         0.1333
     19 C19        -3.9477    1.4257  -10.3641 C.3       1 <0>         0.1246
     20 C20        -1.4789    2.4202   -8.2321 C.3       1 <0>         0.0606
     21 C21         0.4653    0.6767   -4.5542 C.3       1 <0>         0.1012
     22 C22        -3.6459    3.9150  -11.0410 C.3       1 <0>         0.1554
     23 C23        -4.4863    5.1891  -11.1812 C.3       1 <0>        -0.0356
     24 C24         1.4445    5.5921   -8.9731 C.3       1 <0>        -0.0795
     25 C25         1.6370    7.0835   -9.2718 C.3       1 <0>        -0.1203
     26 C26         2.1570    5.1335   -7.6933 C.3       1 <0>        -0.0920
     27 C27         0.9502    7.5360  -10.5601 C.3       1 <0>         0.1502
     28 C28         2.0196    3.6328   -7.4097 C.3       1 <0>         0.0224
     29 N1         -2.2374    2.7178   -9.4321 N.am      1 <0>        -0.3553
     30 N2         -2.5018    1.5760  -10.2111 N.3       1 <0>        -0.4320
     31 N3         -2.6997    3.8562  -12.1647 N.3       1 <0>        -0.9031
     32 N4         -0.4891    7.3143  -10.4680 N.3       1 <0>        -0.9068
     33 N5          1.3052    1.4630   -5.4557 N.am      1 <0>        -0.5526
     34 N6          0.6426    3.2153   -7.3763 N.am      1 <0>        -0.5576
     35 O1         -2.5986    4.9773   -9.1254 O.2       1 <0>        -0.6710
     36 O2          3.9949    3.2835   -6.0334 O.2       1 <0>        -0.4901
     37 O3          2.1023    3.0632   -3.9326 O.2       1 <0>        -0.5902
     38 O4          0.3766    2.7593   -9.6452 O.2       1 <0>        -0.5833
     39 H1         -7.4841    5.0650  -15.6314 H         1 <0>         0.1320
     40 H2         -5.1973    6.0241  -15.7027 H         1 <0>         0.1324
     41 H3         -8.3853    4.1632  -13.5032 H         1 <0>         0.1328
     42 H4         -3.8120    6.0837  -13.6551 H         1 <0>         0.1324
     43 H5         -7.0082    4.2181  -11.4499 H         1 <0>         0.1434
     44 H6         -2.5149   -1.6221   -3.3928 H         1 <0>         0.0405
     45 H7         -2.3587   -1.1117   -5.0724 H         1 <0>         0.0421
     46 H8         -2.8933    0.8339   -3.6807 H         1 <0>         0.0362
     47 H9         -1.5496    0.4867   -2.5949 H         1 <0>         0.0439
     48 H10        -0.0783   -1.6844   -3.1176 H         1 <0>         0.0350
     49 H11        -0.5326   -2.6504   -4.5196 H         1 <0>         0.0428
     50 H12        -1.3600    1.3256   -5.5300 H         1 <0>         0.0663
     51 H13        -0.9158    2.2936   -4.1318 H         1 <0>         0.0466
     52 H14         1.4546   -1.2057   -4.9751 H         1 <0>         0.0493
     53 H15         0.1133   -0.8500   -6.0542 H         1 <0>         0.0520
     54 H16        -2.5391    0.7200   -7.4620 H         1 <0>         0.0915
     55 H17        -0.7905    0.4314   -7.6064 H         1 <0>         0.0601
     56 H18        -4.8571    2.4214  -12.0603 H         1 <0>         0.0688
     57 H19        -5.4956    2.9043  -10.5031 H         1 <0>         0.0630
     58 H20        -0.9338    0.2117   -9.9745 H         1 <0>         0.0807
     59 H21        -2.4949   -0.4779   -9.5259 H         1 <0>         0.0380
     60 H22        -4.4307    1.2677   -9.3899 H         1 <0>         0.0484
     61 H23        -4.1761    0.5456  -10.9773 H         1 <0>         0.0697
     62 H24        -1.8462    2.9971   -7.3786 H         1 <0>         0.0843
     63 H25         0.9263    0.7500   -3.5624 H         1 <0>         0.0831
     64 H26        -3.8200    6.0535  -11.1955 H         1 <0>         0.0704
     65 H27        -5.1199    5.2949  -10.2986 H         1 <0>         0.0718
     66 H28         0.3683    5.4079   -8.8774 H         1 <0>         0.0606
     67 H29         1.7918    5.0040   -9.8306 H         1 <0>         0.0458
     68 H30         1.2300    7.6523   -8.4256 H         1 <0>         0.0375
     69 H31         2.7093    7.3123   -9.3176 H         1 <0>         0.0392
     70 H32         1.7604    5.7005   -6.8419 H         1 <0>         0.0606
     71 H33         3.2243    5.3739   -7.7660 H         1 <0>         0.0579
     72 H34         1.3485    6.9825  -11.4172 H         1 <0>         0.0571
     73 H35         1.1247    8.6013  -10.7375 H         1 <0>         0.0503
     74 H36         2.4714    3.0747   -8.2388 H         1 <0>         0.0993
     75 H37        -2.3461    2.9648  -12.4248 H         1 <0>         0.3700
     76 H38        -2.3015    4.7109  -12.4784 H         1 <0>         0.3660
     77 H39        -1.0402    7.4574  -11.2870 H         1 <0>         0.3465
     78 H40        -0.8946    7.2297   -9.5606 H         1 <0>         0.3446
     79 H41         1.3611    1.1865   -6.4314 H         1 <0>         0.3148
     80 H42         0.1596    3.2148   -6.4798 H         1 <0>         0.3220
@<TRIPOS>BOND
     1    1    2 ar
     2    1    3 ar
     3    2    4 ar
     4    3    5 ar
     5    4    6 ar
     6    5    6 ar
     7    6   23 1
     8    7   22 1
     9    7   29 am
    10    7   35 2
    11    8    9 1
    12    8   28 1
    13    8   36 2
    14    9   33 am
    15    9   37 2
    16   10   20 1
    17   10   34 am
    18   10   38 2
    19   11   12 1
    20   11   13 1
    21   12   14 1
    22   13   15 1
    23   14   21 1
    24   15   21 1
    25   16   18 1
    26   16   20 1
    27   17   19 1
    28   17   22 1
    29   18   30 1
    30   19   30 1
    31   20   29 1
    32   21   33 1
    33   22   23 1
    34   22   31 1
    35   24   25 1
    36   24   26 1
    37   25   27 1
    38   26   28 1
    39   27   32 1
    40   28   34 1
    41   29   30 1
    42    1   39 1
    43    2   40 1
    44    3   41 1
    45    4   42 1
    46    5   43 1
    47   11   44 1
    48   11   45 1
    49   12   46 1
    50   12   47 1
    51   13   48 1
    52   13   49 1
    53   14   50 1
    54   14   51 1
    55   15   52 1
    56   15   53 1
    57   16   54 1
    58   16   55 1
    59   17   56 1
    60   17   57 1
    61   18   58 1
    62   18   59 1
    63   19   60 1
    64   19   61 1
    65   20   62 1
    66   21   63 1
    67   23   64 1
    68   23   65 1
    69   24   66 1
    70   24   67 1
    71   25   68 1
    72   25   69 1
    73   26   70 1
    74   26   71 1
    75   27   72 1
    76   27   73 1
    77   28   74 1
    78   31   75 1
    79   31   76 1
    80   32   77 1
    81   32   78 1
    82   33   79 1
    83   34   80 1
@<TRIPOS>MOLECULE
1a46_ligand_225
   80    83     0     0     0
SMALL
USER_CHARGES

mmff94s_NoEstat = 85.65
@<TRIPOS>ATOM
      1 C1         -5.9518    1.0529  -15.7574 C.ar      1 <0>        -0.1300
      2 C2         -4.7078    1.6646  -15.9115 C.ar      1 <0>        -0.1323
      3 C3         -6.6077    1.1063  -14.5275 C.ar      1 <0>        -0.1309
      4 C4         -4.1196    2.3297  -14.8357 C.ar      1 <0>        -0.1275
      5 C5         -6.0195    1.7714  -13.4517 C.ar      1 <0>        -0.1272
      6 C6         -4.7793    2.3787  -13.6128 C.ar      1 <0>        -0.0843
      7 C7         -2.6173    2.8751  -10.4447 C.2       1 <0>         0.6709
      8 C8          2.7796    3.2097   -6.1637 C.2       1 <0>         0.4867
      9 C9          3.9990    3.9872   -5.7623 C.2       1 <0>         0.5883
     10 C10        -0.0591    2.8141   -8.5012 C.2       1 <0>         0.6572
     11 C11         8.7514    5.7578   -7.6316 C.3       1 <0>        -0.0802
     12 C12         8.7810    4.3461   -7.0528 C.3       1 <0>        -0.0765
     13 C13         7.6561    6.6061   -6.9916 C.3       1 <0>        -0.0774
     14 C14         7.4158    3.6675   -7.1522 C.3       1 <0>        -0.0953
     15 C15         6.2896    5.9304   -7.0917 C.3       1 <0>        -0.0906
     16 C16        -1.5879    1.1654   -7.3921 C.3       1 <0>        -0.0871
     17 C17        -4.1019    0.9486  -11.1228 C.3       1 <0>        -0.0716
     18 C18        -1.5823    0.0424   -8.4274 C.3       1 <0>         0.1333
     19 C19        -3.5290    0.2485   -9.8784 C.3       1 <0>         0.1246
     20 C20        -1.4789    2.4202   -8.2321 C.3       1 <0>         0.0606
     21 C21         6.3208    4.5176   -6.4984 C.3       1 <0>         0.1012
     22 C22        -3.2673    2.1480  -11.6303 C.3       1 <0>         0.1554
     23 C23        -4.1466    3.0941  -12.4556 C.3       1 <0>        -0.0356
     24 C24         1.4445    5.5921   -8.9731 C.3       1 <0>        -0.0795
     25 C25         1.6370    7.0835   -9.2718 C.3       1 <0>        -0.1203
     26 C26         2.1570    5.1335   -7.6933 C.3       1 <0>        -0.0920
     27 C27         0.9502    7.5360  -10.5601 C.3       1 <0>         0.1502
     28 C28         2.0196    3.6328   -7.4097 C.3       1 <0>         0.0224
     29 N1         -2.0587    2.0261   -9.5019 N.am      1 <0>        -0.3553
     30 N2         -2.1349    0.6298   -9.6602 N.3       1 <0>        -0.4320
     31 N3         -2.1572    1.6877  -12.4773 N.3       1 <0>        -0.9031
     32 N4         -0.4891    7.3143  -10.4680 N.3       1 <0>        -0.9068
     33 N5          5.0202    3.8750   -6.6769 N.am      1 <0>        -0.5526
     34 N6          0.6426    3.2153   -7.3763 N.am      1 <0>        -0.5576
     35 O1         -2.5899    4.1027  -10.3594 O.2       1 <0>        -0.6710
     36 O2          2.4233    2.3196   -5.4021 O.2       1 <0>        -0.4901
     37 O3          3.9681    4.5934   -4.7038 O.2       1 <0>        -0.5902
     38 O4          0.3766    2.7593   -9.6452 O.2       1 <0>        -0.5833
     39 H1         -6.4098    0.5350  -16.5951 H         1 <0>         0.1320
     40 H2         -4.1972    1.6230  -16.8692 H         1 <0>         0.1324
     41 H3         -7.5763    0.6298  -14.4076 H         1 <0>         0.1328
     42 H4         -3.1501    2.8034  -14.9651 H         1 <0>         0.1324
     43 H5         -6.5379    1.8077  -12.4972 H         1 <0>         0.1434
     44 H6          9.7248    6.2383   -7.4816 H         1 <0>         0.0405
     45 H7          8.5844    5.7039   -8.7144 H         1 <0>         0.0421
     46 H8          9.5299    3.7463   -7.5821 H         1 <0>         0.0362
     47 H9          9.0904    4.3887   -6.0012 H         1 <0>         0.0439
     48 H10         7.8990    6.7820   -5.9365 H         1 <0>         0.0350
     49 H11         7.6183    7.5872   -7.4785 H         1 <0>         0.0428
     50 H12         7.1730    3.4905   -8.2083 H         1 <0>         0.0663
     51 H13         7.4595    2.6812   -6.6746 H         1 <0>         0.0466
     52 H14         5.5396    6.5385   -6.5714 H         1 <0>         0.0493
     53 H15         5.9798    5.8886   -8.1443 H         1 <0>         0.0520
     54 H16        -2.5475    1.1615   -6.8606 H         1 <0>         0.0915
     55 H17        -0.7842    1.0569   -6.6575 H         1 <0>         0.0601
     56 H18        -4.2204    0.2148  -11.9317 H         1 <0>         0.0688
     57 H19        -5.1178    1.2870  -10.8778 H         1 <0>         0.0630
     58 H20        -0.5477   -0.2605   -8.6286 H         1 <0>         0.0807
     59 H21        -2.1179   -0.8467   -8.0766 H         1 <0>         0.0380
     60 H22        -4.1468    0.5063   -9.0071 H         1 <0>         0.0484
     61 H23        -3.6100   -0.8367  -10.0142 H         1 <0>         0.0697
     62 H24        -2.0054    3.2790   -7.8063 H         1 <0>         0.0843
     63 H25         6.4904    4.5731   -5.4169 H         1 <0>         0.0831
     64 H26        -3.5359    3.9262  -12.8108 H         1 <0>         0.0704
     65 H27        -4.9137    3.5213  -11.8072 H         1 <0>         0.0718
     66 H28         0.3683    5.4079   -8.8774 H         1 <0>         0.0606
     67 H29         1.7918    5.0040   -9.8306 H         1 <0>         0.0458
     68 H30         1.2300    7.6523   -8.4256 H         1 <0>         0.0375
     69 H31         2.7093    7.3123   -9.3176 H         1 <0>         0.0392
     70 H32         1.7604    5.7005   -6.8419 H         1 <0>         0.0606
     71 H33         3.2243    5.3739   -7.7660 H         1 <0>         0.0579
     72 H34         1.3485    6.9825  -11.4172 H         1 <0>         0.0571
     73 H35         1.1247    8.6013  -10.7375 H         1 <0>         0.0503
     74 H36         2.4714    3.0747   -8.2388 H         1 <0>         0.0993
     75 H37        -1.7180    0.8294  -12.2371 H         1 <0>         0.3700
     76 H38        -1.7642    2.3382  -13.1175 H         1 <0>         0.3660
     77 H39        -1.0402    7.4574  -11.2870 H         1 <0>         0.3465
     78 H40        -0.8946    7.2297   -9.5606 H         1 <0>         0.3446
     79 H41         4.8635    3.3209   -7.5135 H         1 <0>         0.3148
     80 H42         0.1596    3.2148   -6.4798 H         1 <0>         0.3220
@<TRIPOS>BOND
     1    1    2 ar
     2    1    3 ar
     3    2    4 ar
     4    3    5 ar
     5    4    6 ar
     6    5    6 ar
     7    6   23 1
     8    7   22 1
     9    7   29 am
    10    7   35 2
    11    8    9 1
    12    8   28 1
    13    8   36 2
    14    9   33 am
    15    9   37 2
    16   10   20 1
    17   10   34 am
    18   10   38 2
    19   11   12 1
    20   11   13 1
    21   12   14 1
    22   13   15 1
    23   14   21 1
    24   15   21 1
    25   16   18 1
    26   16   20 1
    27   17   19 1
    28   17   22 1
    29   18   30 1
    30   19   30 1
    31   20   29 1
    32   21   33 1
    33   22   23 1
    34   22   31 1
    35   24   25 1
    36   24   26 1
    37   25   27 1
    38   26   28 1
    39   27   32 1
    40   28   34 1
    41   29   30 1
    42    1   39 1
    43    2   40 1
    44    3   41 1
    45    4   42 1
    46    5   43 1
    47   11   44 1
    48   11   45 1
    49   12   46 1
    50   12   47 1
    51   13   48 1
    52   13   49 1
    53   14   50 1
    54   14   51 1
    55   15   52 1
    56   15   53 1
    57   16   54 1
    58   16   55 1
    59   17   56 1
    60   17   57 1
    61   18   58 1
    62   18   59 1
    63   19   60 1
    64   19   61 1
    65   20   62 1
    66   21   63 1
    67   23   64 1
    68   23   65 1
    69   24   66 1
    70   24   67 1
    71   25   68 1
    72   25   69 1
    73   26   70 1
    74   26   71 1
    75   27   72 1
    76   27   73 1
    77   28   74 1
    78   31   75 1
    79   31   76 1
    80   32   77 1
    81   32   78 1
    82   33   79 1
    83   34   80 1
@<TRIPOS>MOLECULE
1a46_ligand_226
   80    83     0     0     0
SMALL
USER_CHARGES

mmff94s_NoEstat = 85.67
@<TRIPOS>ATOM
      1 C1         -7.4797    9.4967   -7.6833 C.ar      1 <0>        -0.1300
      2 C2         -6.1413    9.8890   -7.6640 C.ar      1 <0>        -0.1323
      3 C3         -7.8300    8.1942   -7.3275 C.ar      1 <0>        -0.1309
      4 C4         -5.1531    8.9788   -7.2890 C.ar      1 <0>        -0.1275
      5 C5         -6.8418    7.2840   -6.9525 C.ar      1 <0>        -0.1272
      6 C6         -5.5098    7.6822   -6.9356 C.ar      1 <0>        -0.0843
      7 C7         -2.8249    4.9275   -7.3366 C.2       1 <0>         0.6709
      8 C8          2.7796    3.2097   -6.1637 C.2       1 <0>         0.4867
      9 C9          2.2829    2.0299   -5.3801 C.2       1 <0>         0.5883
     10 C10        -0.2306    3.3845   -8.4382 C.2       1 <0>         0.6572
     11 C11         3.8521   -2.7307   -3.3579 C.3       1 <0>        -0.0802
     12 C12         3.3647   -2.7824   -4.8031 C.3       1 <0>        -0.0765
     13 C13         3.2011   -1.5875   -2.5845 C.3       1 <0>        -0.0774
     14 C14         3.5595   -1.4430   -5.5118 C.3       1 <0>        -0.0953
     15 C15         3.3964   -0.2468   -3.2904 C.3       1 <0>        -0.0906
     16 C16        -2.0896    1.9125   -9.2523 C.3       1 <0>        -0.0871
     17 C17        -5.0696    5.1956   -8.4612 C.3       1 <0>        -0.0716
     18 C18        -2.7315    2.8271  -10.2937 C.3       1 <0>         0.1333
     19 C19        -4.6344    3.9888   -9.3103 C.3       1 <0>         0.1246
     20 C20        -1.6152    2.8736   -8.1831 C.3       1 <0>         0.0606
     21 C21         2.8945   -0.2997   -4.7376 C.3       1 <0>         0.1012
     22 C22        -3.9131    5.9309   -7.7439 C.3       1 <0>         0.1554
     23 C23        -4.4468    6.7032   -6.5322 C.3       1 <0>        -0.0356
     24 C24         1.5857    6.0302   -6.5865 C.3       1 <0>        -0.0795
     25 C25         1.6811    7.5259   -6.9095 C.3       1 <0>        -0.1203
     26 C26         2.1570    5.1335   -7.6933 C.3       1 <0>        -0.0920
     27 C27         1.0885    8.4192   -5.8200 C.3       1 <0>         0.1502
     28 C28         2.0196    3.6328   -7.4097 C.3       1 <0>         0.0224
     29 N1         -2.5167    4.0015   -8.3211 N.am      1 <0>        -0.3553
     30 N2         -3.1935    4.0149   -9.5549 N.3       1 <0>        -0.4320
     31 N3         -3.2606    6.8849   -8.6526 N.3       1 <0>        -0.9031
     32 N4          1.8018    8.2205   -4.5627 N.3       1 <0>        -0.9068
     33 N5          3.1633    0.9734   -5.4035 N.am      1 <0>        -0.5526
     34 N6          0.6426    3.2153   -7.3763 N.am      1 <0>        -0.5576
     35 O1         -2.2744    4.9630   -6.2362 O.2       1 <0>        -0.6710
     36 O2          3.8302    3.7133   -5.7870 O.2       1 <0>        -0.4901
     37 O3          1.1896    2.1176   -4.8457 O.2       1 <0>        -0.5902
     38 O4          0.0350    3.8958   -9.5198 O.2       1 <0>        -0.5833
     39 H1         -8.2492   10.2053   -7.9754 H         1 <0>         0.1320
     40 H2         -5.8687   10.9031   -7.9411 H         1 <0>         0.1324
     41 H3         -8.8721    7.8888   -7.3428 H         1 <0>         0.1328
     42 H4         -4.1129    9.2934   -7.2769 H         1 <0>         0.1324
     43 H5         -7.1240    6.2713   -6.6769 H         1 <0>         0.1434
     44 H6          3.6347   -3.6829   -2.8611 H         1 <0>         0.0405
     45 H7          4.9418   -2.6046   -3.3455 H         1 <0>         0.0421
     46 H8          3.9027   -3.5679   -5.3456 H         1 <0>         0.0362
     47 H9          2.3016   -3.0522   -4.8208 H         1 <0>         0.0439
     48 H10         2.1283   -1.7867   -2.4713 H         1 <0>         0.0350
     49 H11         3.6248   -1.5374   -1.5751 H         1 <0>         0.0428
     50 H12         4.6333   -1.2441   -5.6262 H         1 <0>         0.0663
     51 H13         3.1451   -1.4996   -6.5258 H         1 <0>         0.0466
     52 H14         2.8670    0.5397   -2.7390 H         1 <0>         0.0493
     53 H15         4.4605    0.0234   -3.2719 H         1 <0>         0.0520
     54 H16        -2.8557    1.2475   -8.8346 H         1 <0>         0.0915
     55 H17        -1.2902    1.2972   -9.6764 H         1 <0>         0.0601
     56 H18        -5.6211    5.9056   -9.0926 H         1 <0>         0.0688
     57 H19        -5.7930    4.8367   -7.7165 H         1 <0>         0.0630
     58 H20        -1.9690    3.1489  -11.0132 H         1 <0>         0.0807
     59 H21        -3.5191    2.3193  -10.8614 H         1 <0>         0.0380
     60 H22        -4.9276    3.0642   -8.7940 H         1 <0>         0.0484
     61 H23        -5.1821    4.0085  -10.2602 H         1 <0>         0.0697
     62 H24        -1.6538    2.4576   -7.1723 H         1 <0>         0.0843
     63 H25         1.8060   -0.4283   -4.7482 H         1 <0>         0.0831
     64 H26        -3.6167    7.2210   -6.0482 H         1 <0>         0.0704
     65 H27        -4.8413    5.9920   -5.8041 H         1 <0>         0.0718
     66 H28         2.1358    5.8550   -5.6547 H         1 <0>         0.0606
     67 H29         0.5392    5.7688   -6.3906 H         1 <0>         0.0458
     68 H30         2.7419    7.7748   -7.0444 H         1 <0>         0.0375
     69 H31         1.1870    7.7255   -7.8687 H         1 <0>         0.0392
     70 H32         3.2164    5.3787   -7.8393 H         1 <0>         0.0606
     71 H33         1.6466    5.3535   -8.6384 H         1 <0>         0.0579
     72 H34         0.0275    8.1885   -5.6755 H         1 <0>         0.0571
     73 H35         1.1682    9.4739   -6.0992 H         1 <0>         0.0503
     74 H36         2.4714    3.0747   -8.2388 H         1 <0>         0.0993
     75 H37        -3.1845    6.6323   -9.6106 H         1 <0>         0.3700
     76 H38        -2.7498    7.6342   -8.2464 H         1 <0>         0.3660
     77 H39         1.4387    8.6562   -3.7421 H         1 <0>         0.3465
     78 H40         2.7216    7.8360   -4.5996 H         1 <0>         0.3446
     79 H41         4.0392    1.0827   -5.9058 H         1 <0>         0.3148
     80 H42         0.2924    2.7728   -6.5286 H         1 <0>         0.3220
@<TRIPOS>BOND
     1    1    2 ar
     2    1    3 ar
     3    2    4 ar
     4    3    5 ar
     5    4    6 ar
     6    5    6 ar
     7    6   23 1
     8    7   22 1
     9    7   29 am
    10    7   35 2
    11    8    9 1
    12    8   28 1
    13    8   36 2
    14    9   33 am
    15    9   37 2
    16   10   20 1
    17   10   34 am
    18   10   38 2
    19   11   12 1
    20   11   13 1
    21   12   14 1
    22   13   15 1
    23   14   21 1
    24   15   21 1
    25   16   18 1
    26   16   20 1
    27   17   19 1
    28   17   22 1
    29   18   30 1
    30   19   30 1
    31   20   29 1
    32   21   33 1
    33   22   23 1
    34   22   31 1
    35   24   25 1
    36   24   26 1
    37   25   27 1
    38   26   28 1
    39   27   32 1
    40   28   34 1
    41   29   30 1
    42    1   39 1
    43    2   40 1
    44    3   41 1
    45    4   42 1
    46    5   43 1
    47   11   44 1
    48   11   45 1
    49   12   46 1
    50   12   47 1
    51   13   48 1
    52   13   49 1
    53   14   50 1
    54   14   51 1
    55   15   52 1
    56   15   53 1
    57   16   54 1
    58   16   55 1
    59   17   56 1
    60   17   57 1
    61   18   58 1
    62   18   59 1
    63   19   60 1
    64   19   61 1
    65   20   62 1
    66   21   63 1
    67   23   64 1
    68   23   65 1
    69   24   66 1
    70   24   67 1
    71   25   68 1
    72   25   69 1
    73   26   70 1
    74   26   71 1
    75   27   72 1
    76   27   73 1
    77   28   74 1
    78   31   75 1
    79   31   76 1
    80   32   77 1
    81   32   78 1
    82   33   79 1
    83   34   80 1
@<TRIPOS>MOLECULE
1a46_ligand_227
   80    83     0     0     0
SMALL
USER_CHARGES

mmff94s_NoEstat = 85.70
@<TRIPOS>ATOM
      1 C1          9.3427    1.2226  -10.2936 C.ar      1 <0>        -0.1300
      2 C2          9.9666    0.8172   -9.1138 C.ar      1 <0>        -0.1323
      3 C3          8.4336    2.2805  -10.2739 C.ar      1 <0>        -0.1309
      4 C4          9.6814    1.4695   -7.9143 C.ar      1 <0>        -0.1275
      5 C5          8.1485    2.9328   -9.0744 C.ar      1 <0>        -0.1272
      6 C6          8.7742    2.5231   -7.9024 C.ar      1 <0>        -0.0843
      7 C7          6.9710    3.2795   -4.5657 C.2       1 <0>         0.6709
      8 C8          5.2358    2.3798    1.5634 C.2       1 <0>         0.4867
      9 C9          5.6457    1.7076    2.8411 C.2       1 <0>         0.5883
     10 C10         5.7098    2.8119   -1.6475 C.2       1 <0>         0.6572
     11 C11         2.5045   -1.4855    4.9229 C.3       1 <0>        -0.0802
     12 C12         2.2294    0.0020    5.1270 C.3       1 <0>        -0.0765
     13 C13         3.7382   -1.7230    4.0561 C.3       1 <0>        -0.0774
     14 C14         3.4569    0.7312    5.6748 C.3       1 <0>        -0.0953
     15 C15         4.9623   -0.9899    4.6068 C.3       1 <0>        -0.0906
     16 C16         3.6624    3.2324   -3.0320 C.3       1 <0>        -0.0871
     17 C17         6.0388    2.5547   -6.7975 C.3       1 <0>        -0.0716
     18 C18         3.6514    1.9752   -3.8994 C.3       1 <0>         0.1333
     19 C19         4.6996    2.4463   -6.0480 C.3       1 <0>         0.1246
     20 C20         5.1372    3.5153   -2.8394 C.3       1 <0>         0.0606
     21 C21         4.7122    0.5090    4.8206 C.3       1 <0>         0.1012
     22 C22         7.2891    2.5653   -5.8869 C.3       1 <0>         0.1554
     23 C23         8.4675    3.2247   -6.6121 C.3       1 <0>        -0.0356
     24 C24         8.0800    4.9598    0.7851 C.3       1 <0>        -0.0795
     25 C25         8.7880    6.0338    1.6192 C.3       1 <0>        -0.1203
     26 C26         6.9719    4.2276    1.5544 C.3       1 <0>        -0.0920
     27 C27         9.9095    6.7454    0.8629 C.3       1 <0>         0.1502
     28 C28         6.2906    3.1130    0.7514 C.3       1 <0>         0.0224
     29 N1          5.7488    2.9259   -4.0152 N.am      1 <0>        -0.3553
     30 N2          4.9069    2.0073   -4.6693 N.3       1 <0>        -0.4320
     31 N3          7.6768    1.1953   -5.5201 N.3       1 <0>        -0.9031
     32 N4         10.5470    7.7366    1.7233 N.3       1 <0>        -0.9068
     33 N5          4.5746    1.1891    3.5309 N.am      1 <0>        -0.5526
     34 N6          5.7762    3.5917   -0.5046 N.am      1 <0>        -0.5576
     35 O1          7.7474    4.0812   -4.0464 O.2       1 <0>        -0.6710
     36 O2          4.0412    2.3628    1.2952 O.2       1 <0>        -0.4901
     37 O3          6.8302    1.7091    3.1337 O.2       1 <0>        -0.5902
     38 O4          6.0670    1.6440   -1.7490 O.2       1 <0>        -0.5833
     39 H1          9.5646    0.7147  -11.2275 H         1 <0>         0.1320
     40 H2         10.6743   -0.0064   -9.1292 H         1 <0>         0.1324
     41 H3          7.9478    2.5960  -11.1926 H         1 <0>         0.1328
     42 H4         10.1723    1.1467   -7.0000 H         1 <0>         0.1324
     43 H5          7.4388    3.7559   -9.0687 H         1 <0>         0.1434
     44 H6          2.6499   -1.9644    5.8991 H         1 <0>         0.0405
     45 H7          1.6322   -1.9621    4.4616 H         1 <0>         0.0421
     46 H8          1.9253    0.4517    4.1741 H         1 <0>         0.0362
     47 H9          1.3889    0.1282    5.8190 H         1 <0>         0.0439
     48 H10         3.9478   -2.7974    4.0021 H         1 <0>         0.0350
     49 H11         3.5352   -1.3881    3.0317 H         1 <0>         0.0428
     50 H12         3.2358    1.8030    5.7487 H         1 <0>         0.0663
     51 H13         3.6533    0.3764    6.6946 H         1 <0>         0.0466
     52 H14         5.2453   -1.4437    5.5651 H         1 <0>         0.0493
     53 H15         5.8075   -1.1373    3.9236 H         1 <0>         0.0520
     54 H16         3.1996    4.0578   -3.5869 H         1 <0>         0.0915
     55 H17         3.1150    3.0948   -2.0945 H         1 <0>         0.0601
     56 H18         6.1186    1.7328   -7.5220 H         1 <0>         0.0688
     57 H19         6.0134    3.4760   -7.3953 H         1 <0>         0.0630
     58 H20         3.6705    1.0888   -3.2538 H         1 <0>         0.0807
     59 H21         2.7495    1.9066   -4.5175 H         1 <0>         0.0380
     60 H22         4.1937    3.4213   -6.0771 H         1 <0>         0.0484
     61 H23         4.0529    1.7380   -6.5798 H         1 <0>         0.0697
     62 H24         5.3721    4.5807   -2.7630 H         1 <0>         0.0843
     63 H25         5.5797    0.9644    5.3094 H         1 <0>         0.0831
     64 H26         9.3395    3.2124   -5.9558 H         1 <0>         0.0704
     65 H27         8.2279    4.2735   -6.7972 H         1 <0>         0.0718
     66 H28         7.6494    5.4516   -0.0948 H         1 <0>         0.0606
     67 H29         8.8216    4.2418    0.4157 H         1 <0>         0.0458
     68 H30         8.0356    6.7709    1.9287 H         1 <0>         0.0375
     69 H31         9.1825    5.5824    2.5383 H         1 <0>         0.0392
     70 H32         6.2171    4.9575    1.8728 H         1 <0>         0.0606
     71 H33         7.3929    3.7874    2.4660 H         1 <0>         0.0579
     72 H34         9.5108    7.2416   -0.0285 H         1 <0>         0.0571
     73 H35        10.6706    6.0303    0.5375 H         1 <0>         0.0503
     74 H36         7.0421    2.3587    0.4881 H         1 <0>         0.0993
     75 H37         6.9507    0.5323   -5.3773 H         1 <0>         0.3700
     76 H38         8.6161    1.0420   -5.2343 H         1 <0>         0.3660
     77 H39        11.2163    8.3531    1.3147 H         1 <0>         0.3465
     78 H40        10.4498    7.6340    2.7108 H         1 <0>         0.3446
     79 H41         3.6470    1.2820    3.1279 H         1 <0>         0.3148
     80 H42         5.4441    4.5531   -0.5557 H         1 <0>         0.3220
@<TRIPOS>BOND
     1    1    2 ar
     2    1    3 ar
     3    2    4 ar
     4    3    5 ar
     5    4    6 ar
     6    5    6 ar
     7    6   23 1
     8    7   22 1
     9    7   29 am
    10    7   35 2
    11    8    9 1
    12    8   28 1
    13    8   36 2
    14    9   33 am
    15    9   37 2
    16   10   20 1
    17   10   34 am
    18   10   38 2
    19   11   12 1
    20   11   13 1
    21   12   14 1
    22   13   15 1
    23   14   21 1
    24   15   21 1
    25   16   18 1
    26   16   20 1
    27   17   19 1
    28   17   22 1
    29   18   30 1
    30   19   30 1
    31   20   29 1
    32   21   33 1
    33   22   23 1
    34   22   31 1
    35   24   25 1
    36   24   26 1
    37   25   27 1
    38   26   28 1
    39   27   32 1
    40   28   34 1
    41   29   30 1
    42    1   39 1
    43    2   40 1
    44    3   41 1
    45    4   42 1
    46    5   43 1
    47   11   44 1
    48   11   45 1
    49   12   46 1
    50   12   47 1
    51   13   48 1
    52   13   49 1
    53   14   50 1
    54   14   51 1
    55   15   52 1
    56   15   53 1
    57   16   54 1
    58   16   55 1
    59   17   56 1
    60   17   57 1
    61   18   58 1
    62   18   59 1
    63   19   60 1
    64   19   61 1
    65   20   62 1
    66   21   63 1
    67   23   64 1
    68   23   65 1
    69   24   66 1
    70   24   67 1
    71   25   68 1
    72   25   69 1
    73   26   70 1
    74   26   71 1
    75   27   72 1
    76   27   73 1
    77   28   74 1
    78   31   75 1
    79   31   76 1
    80   32   77 1
    81   32   78 1
    82   33   79 1
    83   34   80 1
@<TRIPOS>MOLECULE
1a46_ligand_228
   80    83     0     0     0
SMALL
USER_CHARGES

mmff94s_NoEstat = 85.71
@<TRIPOS>ATOM
      1 C1         -3.7305   -5.9204  -11.3537 C.ar      1 <0>        -0.1300
      2 C2         -2.4262   -5.5183  -11.6410 C.ar      1 <0>        -0.1323
      3 C3         -4.6750   -4.9808  -10.9404 C.ar      1 <0>        -0.1309
      4 C4         -2.0662   -4.1766  -11.5149 C.ar      1 <0>        -0.1275
      5 C5         -4.3150   -3.6391  -10.8142 C.ar      1 <0>        -0.1272
      6 C6         -3.0129   -3.2458  -11.1023 C.ar      1 <0>        -0.0843
      7 C7         -1.7147   -0.0189   -9.4111 C.2       1 <0>         0.6709
      8 C8          2.7796    3.2097   -6.1637 C.2       1 <0>         0.4867
      9 C9          2.2829    2.0299   -5.3801 C.2       1 <0>         0.5883
     10 C10         0.2181    1.9581   -7.7739 C.2       1 <0>         0.6572
     11 C11         2.5353   -3.4105   -5.3126 C.3       1 <0>        -0.0802
     12 C12         1.2892   -2.6887   -5.8179 C.3       1 <0>        -0.0765
     13 C13         3.2896   -2.5767   -4.2807 C.3       1 <0>        -0.0774
     14 C14         1.6225   -1.2981   -6.3555 C.3       1 <0>        -0.0953
     15 C15         3.6257   -1.1862   -4.8170 C.3       1 <0>        -0.0906
     16 C16        -1.7326    1.7367   -6.2145 C.3       1 <0>        -0.0871
     17 C17        -3.1871   -1.8587   -8.5042 C.3       1 <0>        -0.0716
     18 C18        -1.5889    0.2745   -5.7969 C.3       1 <0>         0.1333
     19 C19        -3.0480   -1.1203   -7.1617 C.3       1 <0>         0.1246
     20 C20        -1.2590    1.7411   -7.6524 C.3       1 <0>         0.0606
     21 C21         2.3700   -0.4604   -5.3121 C.3       1 <0>         0.1012
     22 C22        -2.1125   -1.4947   -9.5555 C.3       1 <0>         0.1554
     23 C23        -2.6257   -1.8026  -10.9666 C.3       1 <0>        -0.0356
     24 C24         1.5857    6.0302   -6.5865 C.3       1 <0>        -0.0795
     25 C25         1.6811    7.5259   -6.9095 C.3       1 <0>        -0.1203
     26 C26         2.1570    5.1335   -7.6933 C.3       1 <0>        -0.0920
     27 C27         1.0885    8.4192   -5.8200 C.3       1 <0>         0.1502
     28 C28         2.0196    3.6328   -7.4097 C.3       1 <0>         0.0224
     29 N1         -1.5278    0.3875   -8.0990 N.am      1 <0>        -0.3553
     30 N2         -1.7250   -0.5121   -7.0349 N.3       1 <0>        -0.4320
     31 N3         -0.8818   -2.2667   -9.3297 N.3       1 <0>        -0.9031
     32 N4          1.8018    8.2205   -4.5627 N.3       1 <0>        -0.9068
     33 N5          2.7371    0.8335   -5.8843 N.am      1 <0>        -0.5526
     34 N6          0.6426    3.2153   -7.3763 N.am      1 <0>        -0.5576
     35 O1         -1.5651    0.7213  -10.3831 O.2       1 <0>        -0.6710
     36 O2          3.8302    3.7133   -5.7870 O.2       1 <0>        -0.4901
     37 O3          1.5437    2.2426   -4.4330 O.2       1 <0>        -0.5902
     38 O4          0.9290    1.0536   -8.1959 O.2       1 <0>        -0.5833
     39 H1         -4.0108   -6.9651  -11.4519 H         1 <0>         0.1320
     40 H2         -1.6909   -6.2500  -11.9629 H         1 <0>         0.1324
     41 H3         -5.6906   -5.2940  -10.7166 H         1 <0>         0.1328
     42 H4         -1.0476   -3.8726  -11.7408 H         1 <0>         0.1324
     43 H5         -5.0575   -2.9141  -10.4915 H         1 <0>         0.1434
     44 H6          2.2511   -4.3729   -4.8724 H         1 <0>         0.0405
     45 H7          3.1979   -3.6288   -6.1591 H         1 <0>         0.0421
     46 H8          0.8125   -3.2836   -6.6051 H         1 <0>         0.0362
     47 H9          0.5627   -2.5986   -5.0010 H         1 <0>         0.0439
     48 H10         2.6812   -2.4798   -3.3732 H         1 <0>         0.0350
     49 H11         4.2123   -3.0933   -3.9930 H         1 <0>         0.0428
     50 H12         2.2307   -1.3950   -7.2646 H         1 <0>         0.0663
     51 H13         0.6986   -0.7877   -6.6536 H         1 <0>         0.0466
     52 H14         4.1134   -0.5969   -4.0310 H         1 <0>         0.0493
     53 H15         4.3536   -1.2767   -5.6342 H         1 <0>         0.0520
     54 H16        -2.7915    2.0208   -6.1758 H         1 <0>         0.0915
     55 H17        -1.1685    2.4118   -5.5637 H         1 <0>         0.0601
     56 H18        -3.1756   -2.9428   -8.3269 H         1 <0>         0.0688
     57 H19        -4.1842   -1.6345   -8.9071 H         1 <0>         0.0630
     58 H20        -0.5812    0.1087   -5.3971 H         1 <0>         0.0807
     59 H21        -2.2993   -0.0031   -5.0104 H         1 <0>         0.0380
     60 H22        -3.8377   -0.3598   -7.0886 H         1 <0>         0.0484
     61 H23        -3.2188   -1.8335   -6.3463 H         1 <0>         0.0697
     62 H24        -1.7729    2.4744   -8.2803 H         1 <0>         0.0843
     63 H25         1.7077   -0.2453   -4.4655 H         1 <0>         0.0831
     64 H26        -1.8489   -1.5475  -11.6898 H         1 <0>         0.0704
     65 H27        -3.4798   -1.1578  -11.1818 H         1 <0>         0.0718
     66 H28         2.1358    5.8550   -5.6547 H         1 <0>         0.0606
     67 H29         0.5392    5.7688   -6.3906 H         1 <0>         0.0458
     68 H30         2.7419    7.7748   -7.0444 H         1 <0>         0.0375
     69 H31         1.1870    7.7255   -7.8687 H         1 <0>         0.0392
     70 H32         3.2164    5.3787   -7.8393 H         1 <0>         0.0606
     71 H33         1.6466    5.3535   -8.6384 H         1 <0>         0.0579
     72 H34         0.0275    8.1885   -5.6755 H         1 <0>         0.0571
     73 H35         1.1682    9.4739   -6.0992 H         1 <0>         0.0503
     74 H36         2.4714    3.0747   -8.2388 H         1 <0>         0.0993
     75 H37        -0.6260   -2.4640   -8.3900 H         1 <0>         0.3700
     76 H38        -0.2603   -2.3800  -10.0968 H         1 <0>         0.3660
     77 H39         1.4387    8.6562   -3.7421 H         1 <0>         0.3465
     78 H40         2.7216    7.8360   -4.5996 H         1 <0>         0.3446
     79 H41         3.3550    0.8499   -6.6902 H         1 <0>         0.3148
     80 H42        -0.0552    3.8781   -7.0434 H         1 <0>         0.3220
@<TRIPOS>BOND
     1    1    2 ar
     2    1    3 ar
     3    2    4 ar
     4    3    5 ar
     5    4    6 ar
     6    5    6 ar
     7    6   23 1
     8    7   22 1
     9    7   29 am
    10    7   35 2
    11    8    9 1
    12    8   28 1
    13    8   36 2
    14    9   33 am
    15    9   37 2
    16   10   20 1
    17   10   34 am
    18   10   38 2
    19   11   12 1
    20   11   13 1
    21   12   14 1
    22   13   15 1
    23   14   21 1
    24   15   21 1
    25   16   18 1
    26   16   20 1
    27   17   19 1
    28   17   22 1
    29   18   30 1
    30   19   30 1
    31   20   29 1
    32   21   33 1
    33   22   23 1
    34   22   31 1
    35   24   25 1
    36   24   26 1
    37   25   27 1
    38   26   28 1
    39   27   32 1
    40   28   34 1
    41   29   30 1
    42    1   39 1
    43    2   40 1
    44    3   41 1
    45    4   42 1
    46    5   43 1
    47   11   44 1
    48   11   45 1
    49   12   46 1
    50   12   47 1
    51   13   48 1
    52   13   49 1
    53   14   50 1
    54   14   51 1
    55   15   52 1
    56   15   53 1
    57   16   54 1
    58   16   55 1
    59   17   56 1
    60   17   57 1
    61   18   58 1
    62   18   59 1
    63   19   60 1
    64   19   61 1
    65   20   62 1
    66   21   63 1
    67   23   64 1
    68   23   65 1
    69   24   66 1
    70   24   67 1
    71   25   68 1
    72   25   69 1
    73   26   70 1
    74   26   71 1
    75   27   72 1
    76   27   73 1
    77   28   74 1
    78   31   75 1
    79   31   76 1
    80   32   77 1
    81   32   78 1
    82   33   79 1
    83   34   80 1
@<TRIPOS>MOLECULE
1a46_ligand_229
   80    83     0     0     0
SMALL
USER_CHARGES

mmff94s_NoEstat = 85.72
@<TRIPOS>ATOM
      1 C1         -6.8775    5.0901  -14.7309 C.ar      1 <0>        -0.1300
      2 C2         -5.5917    5.6294  -14.7709 C.ar      1 <0>        -0.1323
      3 C3         -7.3842    4.5832  -13.5342 C.ar      1 <0>        -0.1309
      4 C4         -4.8126    5.6616  -13.6144 C.ar      1 <0>        -0.1275
      5 C5         -6.6051    4.6154  -12.3777 C.ar      1 <0>        -0.1272
      6 C6         -5.3244    5.1544  -12.4253 C.ar      1 <0>        -0.0843
      7 C7         -2.7863    3.9453   -9.7694 C.2       1 <0>         0.6709
      8 C8          2.7796    3.2097   -6.1637 C.2       1 <0>         0.4867
      9 C9          3.9990    3.9872   -5.7623 C.2       1 <0>         0.5883
     10 C10        -0.0591    2.8141   -8.5012 C.2       1 <0>         0.6572
     11 C11         5.5169    8.7660   -3.7440 C.3       1 <0>        -0.0802
     12 C12         5.9568    8.1633   -5.0752 C.3       1 <0>        -0.0765
     13 C13         5.2531    7.6873   -2.6971 C.3       1 <0>        -0.0774
     14 C14         4.9582    7.1235   -5.5805 C.3       1 <0>        -0.0953
     15 C15         4.2531    6.6474   -3.1996 C.3       1 <0>        -0.0906
     16 C16        -1.6498    0.9246   -8.0710 C.3       1 <0>        -0.0871
     17 C17        -4.5618    2.6685  -11.0314 C.3       1 <0>        -0.0716
     18 C18        -1.8952    0.4385   -9.4981 C.3       1 <0>         0.1333
     19 C19        -3.9477    1.4257  -10.3641 C.3       1 <0>         0.1246
     20 C20        -1.4789    2.4202   -8.2321 C.3       1 <0>         0.0606
     21 C21         4.7049    6.0361   -4.5305 C.3       1 <0>         0.1012
     22 C22        -3.6459    3.9150  -11.0410 C.3       1 <0>         0.1554
     23 C23        -4.4863    5.1891  -11.1812 C.3       1 <0>        -0.0356
     24 C24         1.4445    5.5921   -8.9731 C.3       1 <0>        -0.0795
     25 C25         1.6370    7.0835   -9.2718 C.3       1 <0>        -0.1203
     26 C26         2.1570    5.1335   -7.6933 C.3       1 <0>        -0.0920
     27 C27         0.9502    7.5360  -10.5601 C.3       1 <0>         0.1502
     28 C28         2.0196    3.6328   -7.4097 C.3       1 <0>         0.0224
     29 N1         -2.2374    2.7178   -9.4321 N.am      1 <0>        -0.3553
     30 N2         -2.5018    1.5760  -10.2111 N.3       1 <0>        -0.4320
     31 N3         -2.6997    3.8562  -12.1647 N.3       1 <0>        -0.9031
     32 N4          1.1922    8.9569  -10.7874 N.3       1 <0>        -0.9068
     33 N5          3.6918    5.1018   -5.0174 N.am      1 <0>        -0.5526
     34 N6          0.6426    3.2153   -7.3763 N.am      1 <0>        -0.5576
     35 O1         -2.5986    4.9773   -9.1254 O.2       1 <0>        -0.6710
     36 O2          2.4233    2.3196   -5.4021 O.2       1 <0>        -0.4901
     37 O3          5.0860    3.5809   -6.1393 O.2       1 <0>        -0.5902
     38 O4          0.3766    2.7593   -9.6452 O.2       1 <0>        -0.5833
     39 H1         -7.4841    5.0650  -15.6314 H         1 <0>         0.1320
     40 H2         -5.1973    6.0241  -15.7027 H         1 <0>         0.1324
     41 H3         -8.3853    4.1632  -13.5032 H         1 <0>         0.1328
     42 H4         -3.8120    6.0837  -13.6551 H         1 <0>         0.1324
     43 H5         -7.0082    4.2181  -11.4499 H         1 <0>         0.1434
     44 H6          6.2872    9.4542   -3.3782 H         1 <0>         0.0405
     45 H7          4.6053    9.3571   -3.8955 H         1 <0>         0.0421
     46 H8          6.0694    8.9587   -5.8205 H         1 <0>         0.0362
     47 H9          6.9415    7.6947   -4.9565 H         1 <0>         0.0439
     48 H10         6.1962    7.1905   -2.4382 H         1 <0>         0.0350
     49 H11         4.8734    8.1500   -1.7792 H         1 <0>         0.0428
     50 H12         4.0145    7.6209   -5.8408 H         1 <0>         0.0663
     51 H13         5.3351    6.6704   -6.5055 H         1 <0>         0.0466
     52 H14         4.1333    5.8588   -2.4469 H         1 <0>         0.0493
     53 H15         3.2675    7.1166   -3.3175 H         1 <0>         0.0520
     54 H16        -2.5391    0.7200   -7.4620 H         1 <0>         0.0915
     55 H17        -0.7905    0.4314   -7.6064 H         1 <0>         0.0601
     56 H18        -4.8571    2.4214  -12.0603 H         1 <0>         0.0688
     57 H19        -5.4956    2.9043  -10.5031 H         1 <0>         0.0630
     58 H20        -0.9338    0.2117   -9.9745 H         1 <0>         0.0807
     59 H21        -2.4949   -0.4779   -9.5259 H         1 <0>         0.0380
     60 H22        -4.4307    1.2677   -9.3899 H         1 <0>         0.0484
     61 H23        -4.1761    0.5456  -10.9773 H         1 <0>         0.0697
     62 H24        -1.8462    2.9971   -7.3786 H         1 <0>         0.0843
     63 H25         5.6173    5.4480   -4.3779 H         1 <0>         0.0831
     64 H26        -3.8200    6.0535  -11.1955 H         1 <0>         0.0704
     65 H27        -5.1199    5.2949  -10.2986 H         1 <0>         0.0718
     66 H28         0.3683    5.4079   -8.8774 H         1 <0>         0.0606
     67 H29         1.7918    5.0040   -9.8306 H         1 <0>         0.0458
     68 H30         1.2300    7.6523   -8.4256 H         1 <0>         0.0375
     69 H31         2.7093    7.3123   -9.3176 H         1 <0>         0.0392
     70 H32         1.7604    5.7005   -6.8419 H         1 <0>         0.0606
     71 H33         3.2243    5.3739   -7.7660 H         1 <0>         0.0579
     72 H34        -0.1287    7.3572  -10.4981 H         1 <0>         0.0571
     73 H35         1.3345    6.9786  -11.4193 H         1 <0>         0.0503
     74 H36         2.4714    3.0747   -8.2388 H         1 <0>         0.0993
     75 H37        -2.3461    2.9648  -12.4248 H         1 <0>         0.3700
     76 H38        -2.3015    4.7109  -12.4784 H         1 <0>         0.3660
     77 H39         0.7014    9.4044  -11.5317 H         1 <0>         0.3465
     78 H40         1.9755    9.3785  -10.3359 H         1 <0>         0.3446
     79 H41         2.7174    5.2838   -4.7957 H         1 <0>         0.3148
     80 H42         0.1596    3.2148   -6.4798 H         1 <0>         0.3220
@<TRIPOS>BOND
     1    1    2 ar
     2    1    3 ar
     3    2    4 ar
     4    3    5 ar
     5    4    6 ar
     6    5    6 ar
     7    6   23 1
     8    7   22 1
     9    7   29 am
    10    7   35 2
    11    8    9 1
    12    8   28 1
    13    8   36 2
    14    9   33 am
    15    9   37 2
    16   10   20 1
    17   10   34 am
    18   10   38 2
    19   11   12 1
    20   11   13 1
    21   12   14 1
    22   13   15 1
    23   14   21 1
    24   15   21 1
    25   16   18 1
    26   16   20 1
    27   17   19 1
    28   17   22 1
    29   18   30 1
    30   19   30 1
    31   20   29 1
    32   21   33 1
    33   22   23 1
    34   22   31 1
    35   24   25 1
    36   24   26 1
    37   25   27 1
    38   26   28 1
    39   27   32 1
    40   28   34 1
    41   29   30 1
    42    1   39 1
    43    2   40 1
    44    3   41 1
    45    4   42 1
    46    5   43 1
    47   11   44 1
    48   11   45 1
    49   12   46 1
    50   12   47 1
    51   13   48 1
    52   13   49 1
    53   14   50 1
    54   14   51 1
    55   15   52 1
    56   15   53 1
    57   16   54 1
    58   16   55 1
    59   17   56 1
    60   17   57 1
    61   18   58 1
    62   18   59 1
    63   19   60 1
    64   19   61 1
    65   20   62 1
    66   21   63 1
    67   23   64 1
    68   23   65 1
    69   24   66 1
    70   24   67 1
    71   25   68 1
    72   25   69 1
    73   26   70 1
    74   26   71 1
    75   27   72 1
    76   27   73 1
    77   28   74 1
    78   31   75 1
    79   31   76 1
    80   32   77 1
    81   32   78 1
    82   33   79 1
    83   34   80 1
@<TRIPOS>MOLECULE
1a46_ligand_230
   80    83     0     0     0
SMALL
USER_CHARGES

mmff94s_NoEstat = 85.75
@<TRIPOS>ATOM
      1 C1          9.0003   12.0144   -5.4225 C.ar      1 <0>        -0.1300
      2 C2          9.4537   11.5665   -4.1818 C.ar      1 <0>        -0.1323
      3 C3          7.8120   11.5127   -5.9535 C.ar      1 <0>        -0.1309
      4 C4          8.7189   10.6167   -3.4722 C.ar      1 <0>        -0.1275
      5 C5          7.0772   10.5629   -5.2439 C.ar      1 <0>        -0.1272
      6 C6          7.5355   10.1211   -4.0078 C.ar      1 <0>        -0.0843
      7 C7          6.3757    6.6257   -2.8269 C.2       1 <0>         0.6709
      8 C8          5.2358    2.3798    1.5634 C.2       1 <0>         0.4867
      9 C9          3.8230    2.3549    1.0577 C.2       1 <0>         0.5883
     10 C10         6.5256    3.6321   -1.6689 C.2       1 <0>         0.6572
     11 C11         1.4085   -1.9541    1.0568 C.3       1 <0>        -0.0802
     12 C12         2.4102   -1.7120   -0.0693 C.3       1 <0>        -0.0765
     13 C13         1.3521   -0.7805    2.0311 C.3       1 <0>        -0.0774
     14 C14         2.1398   -0.3897   -0.7884 C.3       1 <0>        -0.0953
     15 C15         1.0838    0.5396    1.3070 C.3       1 <0>        -0.0906
     16 C16         5.8400    3.2307   -4.0468 C.3       1 <0>        -0.0871
     17 C17         7.0291    7.4385   -5.1265 C.3       1 <0>        -0.0716
     18 C18         7.1120    3.6562   -4.7776 C.3       1 <0>         0.1333
     19 C19         6.8955    5.9616   -5.5361 C.3       1 <0>         0.1246
     20 C20         5.7868    4.1659   -2.8575 C.3       1 <0>         0.0606
     21 C21         2.0784    0.8075    0.1696 C.3       1 <0>         0.1012
     22 C22         7.1815    7.6752   -3.6055 C.3       1 <0>         0.1554
     23 C23         6.7451    9.0995   -3.2444 C.3       1 <0>        -0.0356
     24 C24         7.6485    3.7409    2.8432 C.3       1 <0>        -0.0795
     25 C25         8.2774    4.8743    3.6620 C.3       1 <0>        -0.1203
     26 C26         6.9719    4.2276    1.5544 C.3       1 <0>        -0.0920
     27 C27         8.9284    4.3945    4.9589 C.3       1 <0>         0.1502
     28 C28         6.2906    3.1130    0.7514 C.3       1 <0>         0.0224
     29 N1          6.5101    5.3360   -3.3173 N.am      1 <0>        -0.3553
     30 N2          7.3084    5.0783   -4.4472 N.3       1 <0>        -0.4320
     31 N3          8.5804    7.4980   -3.1893 N.3       1 <0>        -0.9031
     32 N4          9.4866    5.5266    5.6910 N.3       1 <0>        -0.9068
     33 N5          3.4082    1.0891    0.7148 N.am      1 <0>        -0.5526
     34 N6          5.7762    3.5917   -0.5046 N.am      1 <0>        -0.5576
     35 O1          5.6876    6.9159   -1.8485 O.2       1 <0>        -0.6710
     36 O2          5.4669    1.7271    2.5732 O.2       1 <0>        -0.4901
     37 O3          3.2225    3.4147    0.9857 O.2       1 <0>        -0.5902
     38 O4          7.6924    3.2783   -1.7917 O.2       1 <0>        -0.5833
     39 H1          9.5724   12.7539   -5.9752 H         1 <0>         0.1320
     40 H2         10.3789   11.9573   -3.7685 H         1 <0>         0.1324
     41 H3          7.4591   11.8615   -6.9197 H         1 <0>         0.1328
     42 H4          9.0800   10.2736   -2.5062 H         1 <0>         0.1324
     43 H5          6.1526   10.1776   -5.6655 H         1 <0>         0.1434
     44 H6          0.4123   -2.1163    0.6268 H         1 <0>         0.0405
     45 H7          1.6748   -2.8696    1.5969 H         1 <0>         0.0421
     46 H8          3.4275   -1.7101    0.3405 H         1 <0>         0.0362
     47 H9          2.3604   -2.5373   -0.7887 H         1 <0>         0.0439
     48 H10         0.5662   -0.9575    2.7741 H         1 <0>         0.0350
     49 H11         2.2989   -0.7161    2.5809 H         1 <0>         0.0428
     50 H12         2.9155   -0.2268   -1.5465 H         1 <0>         0.0663
     51 H13         1.1844   -0.4667   -1.3229 H         1 <0>         0.0466
     52 H14         0.0677    0.5160    0.8929 H         1 <0>         0.0493
     53 H15         1.1117    1.3607    2.0335 H         1 <0>         0.0520
     54 H16         4.9736    3.4114   -4.6951 H         1 <0>         0.0915
     55 H17         5.8531    2.1713   -3.7729 H         1 <0>         0.0601
     56 H18         7.8805    7.8879   -5.6555 H         1 <0>         0.0688
     57 H19         6.1391    7.9685   -5.4921 H         1 <0>         0.0630
     58 H20         7.9647    3.0932   -4.3794 H         1 <0>         0.0807
     59 H21         7.0607    3.4497   -5.8523 H         1 <0>         0.0380
     60 H22         5.8545    5.7643   -5.8276 H         1 <0>         0.0484
     61 H23         7.5124    5.7838   -6.4252 H         1 <0>         0.0697
     62 H24         4.7698    4.4250   -2.5496 H         1 <0>         0.0843
     63 H25         1.7819    1.7076   -0.3790 H         1 <0>         0.0831
     64 H26         6.8700    9.2469   -2.1701 H         1 <0>         0.0704
     65 H27         5.6795    9.2080   -3.4549 H         1 <0>         0.0718
     66 H28         8.4445    3.0306    2.5915 H         1 <0>         0.0606
     67 H29         6.9275    3.2007    3.4679 H         1 <0>         0.0458
     68 H30         9.0354    5.3625    3.0356 H         1 <0>         0.0375
     69 H31         7.5157    5.6329    3.8824 H         1 <0>         0.0392
     70 H32         7.7210    4.7221    0.9235 H         1 <0>         0.0606
     71 H33         6.2174    4.9831    1.8035 H         1 <0>         0.0579
     72 H34         9.7251    3.6753    4.7403 H         1 <0>         0.0571
     73 H35         8.1937    3.8977    5.5994 H         1 <0>         0.0503
     74 H36         7.0421    2.3587    0.4881 H         1 <0>         0.0993
     75 H37         9.1142    6.7979   -3.6499 H         1 <0>         0.3700
     76 H38         8.8693    7.9327   -2.3437 H         1 <0>         0.3660
     77 H39        10.0430    5.3371    6.4969 H         1 <0>         0.3465
     78 H40         9.1331    6.4373    5.4892 H         1 <0>         0.3446
     79 H41         4.0528    0.3153    0.8455 H         1 <0>         0.3148
     80 H42         4.8120    3.9176   -0.5391 H         1 <0>         0.3220
@<TRIPOS>BOND
     1    1    2 ar
     2    1    3 ar
     3    2    4 ar
     4    3    5 ar
     5    4    6 ar
     6    5    6 ar
     7    6   23 1
     8    7   22 1
     9    7   29 am
    10    7   35 2
    11    8    9 1
    12    8   28 1
    13    8   36 2
    14    9   33 am
    15    9   37 2
    16   10   20 1
    17   10   34 am
    18   10   38 2
    19   11   12 1
    20   11   13 1
    21   12   14 1
    22   13   15 1
    23   14   21 1
    24   15   21 1
    25   16   18 1
    26   16   20 1
    27   17   19 1
    28   17   22 1
    29   18   30 1
    30   19   30 1
    31   20   29 1
    32   21   33 1
    33   22   23 1
    34   22   31 1
    35   24   25 1
    36   24   26 1
    37   25   27 1
    38   26   28 1
    39   27   32 1
    40   28   34 1
    41   29   30 1
    42    1   39 1
    43    2   40 1
    44    3   41 1
    45    4   42 1
    46    5   43 1
    47   11   44 1
    48   11   45 1
    49   12   46 1
    50   12   47 1
    51   13   48 1
    52   13   49 1
    53   14   50 1
    54   14   51 1
    55   15   52 1
    56   15   53 1
    57   16   54 1
    58   16   55 1
    59   17   56 1
    60   17   57 1
    61   18   58 1
    62   18   59 1
    63   19   60 1
    64   19   61 1
    65   20   62 1
    66   21   63 1
    67   23   64 1
    68   23   65 1
    69   24   66 1
    70   24   67 1
    71   25   68 1
    72   25   69 1
    73   26   70 1
    74   26   71 1
    75   27   72 1
    76   27   73 1
    77   28   74 1
    78   31   75 1
    79   31   76 1
    80   32   77 1
    81   32   78 1
    82   33   79 1
    83   34   80 1
@<TRIPOS>MOLECULE
1a46_ligand_231
   80    83     0     0     0
SMALL
USER_CHARGES

mmff94s_NoEstat = 85.78
@<TRIPOS>ATOM
      1 C1         -7.7455    8.1925  -11.7378 C.ar      1 <0>        -0.1300
      2 C2         -6.4538    8.7176  -11.7053 C.ar      1 <0>        -0.1323
      3 C3         -8.1013    7.1613  -10.8684 C.ar      1 <0>        -0.1309
      4 C4         -5.5176    8.2116  -10.8036 C.ar      1 <0>        -0.1275
      5 C5         -7.1651    6.6552   -9.9666 C.ar      1 <0>        -0.1272
      6 C6         -5.8794    7.1836   -9.9401 C.ar      1 <0>        -0.0843
      7 C7         -3.0518    4.9149   -8.5929 C.2       1 <0>         0.6709
      8 C8          2.7796    3.2097   -6.1637 C.2       1 <0>         0.4867
      9 C9          2.2829    2.0299   -5.3801 C.2       1 <0>         0.5883
     10 C10        -0.2306    3.3845   -8.4382 C.2       1 <0>         0.6572
     11 C11        -2.1182    0.0637   -2.9350 C.3       1 <0>        -0.0802
     12 C12        -1.2651    0.9841   -2.0667 C.3       1 <0>        -0.0765
     13 C13        -1.2822   -0.6402   -4.0001 C.3       1 <0>        -0.0774
     14 C14        -0.4755    1.9830   -2.9108 C.3       1 <0>        -0.0953
     15 C15        -0.4933    0.3571   -4.8469 C.3       1 <0>        -0.0906
     16 C16        -1.8342    1.4799   -8.7324 C.3       1 <0>        -0.0871
     17 C17        -5.0487    4.3542  -10.0327 C.3       1 <0>        -0.0716
     18 C18        -2.3033    1.7312  -10.1641 C.3       1 <0>         0.1333
     19 C19        -4.4074    2.9598  -10.1390 C.3       1 <0>         0.1246
     20 C20        -1.6152    2.8736   -8.1831 C.3       1 <0>         0.0606
     21 C21         0.3712    1.2712   -3.9717 C.3       1 <0>         0.1012
     22 C22        -4.0838    5.4758   -9.5814 C.3       1 <0>         0.1554
     23 C23        -4.8724    6.6393   -8.9701 C.3       1 <0>        -0.0356
     24 C24         1.5857    6.0302   -6.5865 C.3       1 <0>        -0.0795
     25 C25         1.6811    7.5259   -6.9095 C.3       1 <0>        -0.1203
     26 C26         2.1570    5.1335   -7.6933 C.3       1 <0>        -0.0920
     27 C27         1.0885    8.4192   -5.8200 C.3       1 <0>         0.1502
     28 C28         2.0196    3.6328   -7.4097 C.3       1 <0>         0.0224
     29 N1         -2.5211    3.6904   -8.9681 N.am      1 <0>        -0.3553
     30 N2         -2.9489    3.0553  -10.1488 N.3       1 <0>        -0.4320
     31 N3         -3.3108    5.9870  -10.7228 N.3       1 <0>        -0.9031
     32 N4          1.1980    9.8225   -6.2046 N.3       1 <0>        -0.9068
     33 N5          1.0538    2.2579   -4.8066 N.am      1 <0>        -0.5526
     34 N6          0.6426    3.2153   -7.3763 N.am      1 <0>        -0.5576
     35 O1         -2.7244    5.5164   -7.5701 O.2       1 <0>        -0.6710
     36 O2          3.8302    3.7133   -5.7870 O.2       1 <0>        -0.4901
     37 O3          2.9978    1.0431   -5.3175 O.2       1 <0>        -0.5902
     38 O4          0.0350    3.8958   -9.5198 O.2       1 <0>        -0.5833
     39 H1         -8.4745    8.5865  -12.4399 H         1 <0>         0.1320
     40 H2         -6.1769    9.5206  -12.3823 H         1 <0>         0.1324
     41 H3         -9.1071    6.7523  -10.8939 H         1 <0>         0.1328
     42 H4         -4.5135    8.6269  -10.7854 H         1 <0>         0.1324
     43 H5         -7.4512    5.8517   -9.2932 H         1 <0>         0.1434
     44 H6         -2.6155   -0.6818   -2.3043 H         1 <0>         0.0405
     45 H7         -2.9079    0.6502   -3.4206 H         1 <0>         0.0421
     46 H8         -1.9065    1.5240   -1.3610 H         1 <0>         0.0362
     47 H9         -0.5691    0.3818   -1.4699 H         1 <0>         0.0439
     48 H10        -0.5872   -1.3383   -3.5175 H         1 <0>         0.0350
     49 H11        -1.9359   -1.2364   -4.6469 H         1 <0>         0.0428
     50 H12        -1.1711    2.6825   -3.3932 H         1 <0>         0.0663
     51 H13         0.1691    2.5863   -2.2600 H         1 <0>         0.0466
     52 H14         0.1389   -0.1855   -5.5603 H         1 <0>         0.0493
     53 H15        -1.1901    0.9592   -5.4447 H         1 <0>         0.0520
     54 H16        -2.6369    0.9859   -8.1710 H         1 <0>         0.0915
     55 H17        -0.9427    0.8466   -8.6926 H         1 <0>         0.0601
     56 H18        -5.4989    4.6229  -10.9981 H         1 <0>         0.0688
     57 H19        -5.8853    4.2840   -9.3243 H         1 <0>         0.0630
     58 H20        -1.4316    1.7851  -10.8273 H         1 <0>         0.0807
     59 H21        -2.9449    0.9252  -10.5369 H         1 <0>         0.0380
     60 H22        -4.7542    2.3419   -9.2992 H         1 <0>         0.0484
     61 H23        -4.7632    2.4757  -11.0564 H         1 <0>         0.0697
     62 H24        -1.8289    2.9613   -7.1141 H         1 <0>         0.0843
     63 H25         1.1581    0.6833   -3.4852 H         1 <0>         0.0831
     64 H26        -4.1735    7.4215   -8.6684 H         1 <0>         0.0704
     65 H27        -5.3683    6.2928   -8.0614 H         1 <0>         0.0718
     66 H28         2.1358    5.8550   -5.6547 H         1 <0>         0.0606
     67 H29         0.5392    5.7688   -6.3906 H         1 <0>         0.0458
     68 H30         2.7419    7.7748   -7.0444 H         1 <0>         0.0375
     69 H31         1.1870    7.7255   -7.8687 H         1 <0>         0.0392
     70 H32         3.2164    5.3787   -7.8393 H         1 <0>         0.0606
     71 H33         1.6466    5.3535   -8.6384 H         1 <0>         0.0579
     72 H34         1.6137    8.2608   -4.8719 H         1 <0>         0.0571
     73 H35         0.0315    8.1861   -5.6617 H         1 <0>         0.0503
     74 H36         2.4714    3.0747   -8.2388 H         1 <0>         0.0993
     75 H37        -3.0417    5.3386  -11.4260 H         1 <0>         0.3700
     76 H38        -2.9200    6.8973  -10.6453 H         1 <0>         0.3660
     77 H39         0.9557   10.5154   -5.5293 H         1 <0>         0.3465
     78 H40         1.3102   10.0373   -7.1723 H         1 <0>         0.3446
     79 H41         0.6002    3.1517   -4.9705 H         1 <0>         0.3148
     80 H42         0.2924    2.7728   -6.5286 H         1 <0>         0.3220
@<TRIPOS>BOND
     1    1    2 ar
     2    1    3 ar
     3    2    4 ar
     4    3    5 ar
     5    4    6 ar
     6    5    6 ar
     7    6   23 1
     8    7   22 1
     9    7   29 am
    10    7   35 2
    11    8    9 1
    12    8   28 1
    13    8   36 2
    14    9   33 am
    15    9   37 2
    16   10   20 1
    17   10   34 am
    18   10   38 2
    19   11   12 1
    20   11   13 1
    21   12   14 1
    22   13   15 1
    23   14   21 1
    24   15   21 1
    25   16   18 1
    26   16   20 1
    27   17   19 1
    28   17   22 1
    29   18   30 1
    30   19   30 1
    31   20   29 1
    32   21   33 1
    33   22   23 1
    34   22   31 1
    35   24   25 1
    36   24   26 1
    37   25   27 1
    38   26   28 1
    39   27   32 1
    40   28   34 1
    41   29   30 1
    42    1   39 1
    43    2   40 1
    44    3   41 1
    45    4   42 1
    46    5   43 1
    47   11   44 1
    48   11   45 1
    49   12   46 1
    50   12   47 1
    51   13   48 1
    52   13   49 1
    53   14   50 1
    54   14   51 1
    55   15   52 1
    56   15   53 1
    57   16   54 1
    58   16   55 1
    59   17   56 1
    60   17   57 1
    61   18   58 1
    62   18   59 1
    63   19   60 1
    64   19   61 1
    65   20   62 1
    66   21   63 1
    67   23   64 1
    68   23   65 1
    69   24   66 1
    70   24   67 1
    71   25   68 1
    72   25   69 1
    73   26   70 1
    74   26   71 1
    75   27   72 1
    76   27   73 1
    77   28   74 1
    78   31   75 1
    79   31   76 1
    80   32   77 1
    81   32   78 1
    82   33   79 1
    83   34   80 1
@<TRIPOS>MOLECULE
1a46_ligand_232
   80    83     0     0     0
SMALL
USER_CHARGES

mmff94s_NoEstat = 85.80
@<TRIPOS>ATOM
      1 C1         11.2307    8.4980   -6.9074 C.ar      1 <0>        -0.1300
      2 C2         11.6037    8.0134   -5.6538 C.ar      1 <0>        -0.1323
      3 C3          9.8807    8.5885   -7.2468 C.ar      1 <0>        -0.1309
      4 C4         10.6268    7.6193   -4.7395 C.ar      1 <0>        -0.1275
      5 C5          8.9038    8.1943   -6.3325 C.ar      1 <0>        -0.1272
      6 C6          9.2832    7.7123   -5.0848 C.ar      1 <0>        -0.0843
      7 C7          6.8112    5.3648   -3.2584 C.2       1 <0>         0.6709
      8 C8          5.2358    2.3798    1.5634 C.2       1 <0>         0.4867
      9 C9          3.8230    2.3549    1.0577 C.2       1 <0>         0.5883
     10 C10         5.7098    2.8119   -1.6475 C.2       1 <0>         0.6572
     11 C11         0.1943    2.5042    4.4055 C.3       1 <0>        -0.0802
     12 C12         0.8241    1.3237    3.6709 C.3       1 <0>        -0.0765
     13 C13         0.8490    3.8286    4.0220 C.3       1 <0>        -0.0774
     14 C14         0.8252    1.5389    2.1568 C.3       1 <0>        -0.0953
     15 C15         0.8496    4.0381    2.5071 C.3       1 <0>        -0.0906
     16 C16         4.5614    2.5584   -3.8616 C.3       1 <0>        -0.0871
     17 C17         7.4096    5.5196   -5.7065 C.3       1 <0>        -0.0716
     18 C18         5.7552    2.2338   -4.7574 C.3       1 <0>         0.1333
     19 C19         6.5359    4.2626   -5.8584 C.3       1 <0>         0.1246
     20 C20         5.1372    3.5153   -2.8394 C.3       1 <0>         0.0606
     21 C21         1.4786    2.8646    1.7442 C.3       1 <0>         0.1012
     22 C22         7.8862    5.8039   -4.2626 C.3       1 <0>         0.1554
     23 C23         8.2324    7.2883   -4.1013 C.3       1 <0>        -0.0356
     24 C24         6.0158    5.3379    2.0114 C.3       1 <0>        -0.0795
     25 C25         6.7209    6.4716    2.7653 C.3       1 <0>        -0.1203
     26 C26         6.9719    4.2276    1.5544 C.3       1 <0>        -0.0920
     27 C27         5.7742    7.5909    3.1979 C.3       1 <0>         0.1502
     28 C28         6.2906    3.1130    0.7514 C.3       1 <0>         0.0224
     29 N1          6.2461    4.1312   -3.5428 N.am      1 <0>        -0.3553
     30 N2          6.6457    3.4048   -4.6800 N.3       1 <0>        -0.4320
     31 N3          9.0821    5.0103   -3.9441 N.3       1 <0>        -0.9031
     32 N4          4.7531    7.0666    4.0988 N.3       1 <0>        -0.9068
     33 N5          2.9218    2.8162    1.9889 N.am      1 <0>        -0.5526
     34 N6          5.7762    3.5917   -0.5046 N.am      1 <0>        -0.5576
     35 O1          6.4995    6.0504   -2.2848 O.2       1 <0>        -0.6710
     36 O2          5.4669    1.7271    2.5732 O.2       1 <0>        -0.4901
     37 O3          3.6258    1.9273   -0.0679 O.2       1 <0>        -0.5902
     38 O4          6.0670    1.6440   -1.7490 O.2       1 <0>        -0.5833
     39 H1         11.9913    8.8048   -7.6194 H         1 <0>         0.1320
     40 H2         12.6548    7.9430   -5.3897 H         1 <0>         0.1324
     41 H3          9.5904    8.9656   -8.2230 H         1 <0>         0.1328
     42 H4         10.9268    7.2430   -3.7651 H         1 <0>         0.1324
     43 H5          7.8545    8.2683   -6.6056 H         1 <0>         0.1434
     44 H6         -0.8764    2.5478    4.1705 H         1 <0>         0.0405
     45 H7          0.2765    2.3517    5.4876 H         1 <0>         0.0421
     46 H8          1.8516    1.1783    4.0256 H         1 <0>         0.0362
     47 H9          0.2739    0.4065    3.9103 H         1 <0>         0.0439
     48 H10         0.3166    4.6552    4.5063 H         1 <0>         0.0350
     49 H11         1.8783    3.8505    4.3999 H         1 <0>         0.0428
     50 H12         1.3389    0.6988    1.6740 H         1 <0>         0.0663
     51 H13        -0.2116    1.5264    1.7970 H         1 <0>         0.0466
     52 H14        -0.1857    4.1693    2.1674 H         1 <0>         0.0493
     53 H15         1.3811    4.9684    2.2727 H         1 <0>         0.0520
     54 H16         3.7944    3.0721   -4.4543 H         1 <0>         0.0915
     55 H17         4.1162    1.6608   -3.4217 H         1 <0>         0.0601
     56 H18         8.2801    5.4412   -6.3721 H         1 <0>         0.0688
     57 H19         6.8297    6.3763   -6.0759 H         1 <0>         0.0630
     58 H20         6.2922    1.3700   -4.3474 H         1 <0>         0.0807
     59 H21         5.4490    1.9715   -5.7762 H         1 <0>         0.0380
     60 H22         5.4939    4.5694   -6.0242 H         1 <0>         0.0484
     61 H23         6.8523    3.7181   -6.7562 H         1 <0>         0.0697
     62 H24         4.4225    4.2667   -2.4920 H         1 <0>         0.0843
     63 H25         1.3617    3.0169    0.6661 H         1 <0>         0.0831
     64 H26         8.5747    7.4635   -3.0797 H         1 <0>         0.0704
     65 H27         7.3253    7.8806   -4.2350 H         1 <0>         0.0718
     66 H28         5.2579    4.9142    2.6804 H         1 <0>         0.0606
     67 H29         5.4809    5.7546    1.1500 H         1 <0>         0.0458
     68 H30         7.2000    6.0392    3.6534 H         1 <0>         0.0375
     69 H31         7.5258    6.8807    2.1417 H         1 <0>         0.0392
     70 H32         7.4599    3.7926    2.4354 H         1 <0>         0.0606
     71 H33         7.7645    4.6634    0.9347 H         1 <0>         0.0579
     72 H34         5.2908    8.0386    2.3228 H         1 <0>         0.0571
     73 H35         6.3225    8.3806    3.7198 H         1 <0>         0.0503
     74 H36         7.0421    2.3587    0.4881 H         1 <0>         0.0993
     75 H37         9.1461    4.0964   -4.3289 H         1 <0>         0.3700
     76 H38         9.6671    5.3316   -3.2079 H         1 <0>         0.3660
     77 H39         4.0028    7.6695    4.3608 H         1 <0>         0.3465
     78 H40         4.9421    6.2118    4.5770 H         1 <0>         0.3446
     79 H41         3.2728    3.1375    2.8861 H         1 <0>         0.3148
     80 H42         5.4441    4.5531   -0.5557 H         1 <0>         0.3220
@<TRIPOS>BOND
     1    1    2 ar
     2    1    3 ar
     3    2    4 ar
     4    3    5 ar
     5    4    6 ar
     6    5    6 ar
     7    6   23 1
     8    7   22 1
     9    7   29 am
    10    7   35 2
    11    8    9 1
    12    8   28 1
    13    8   36 2
    14    9   33 am
    15    9   37 2
    16   10   20 1
    17   10   34 am
    18   10   38 2
    19   11   12 1
    20   11   13 1
    21   12   14 1
    22   13   15 1
    23   14   21 1
    24   15   21 1
    25   16   18 1
    26   16   20 1
    27   17   19 1
    28   17   22 1
    29   18   30 1
    30   19   30 1
    31   20   29 1
    32   21   33 1
    33   22   23 1
    34   22   31 1
    35   24   25 1
    36   24   26 1
    37   25   27 1
    38   26   28 1
    39   27   32 1
    40   28   34 1
    41   29   30 1
    42    1   39 1
    43    2   40 1
    44    3   41 1
    45    4   42 1
    46    5   43 1
    47   11   44 1
    48   11   45 1
    49   12   46 1
    50   12   47 1
    51   13   48 1
    52   13   49 1
    53   14   50 1
    54   14   51 1
    55   15   52 1
    56   15   53 1
    57   16   54 1
    58   16   55 1
    59   17   56 1
    60   17   57 1
    61   18   58 1
    62   18   59 1
    63   19   60 1
    64   19   61 1
    65   20   62 1
    66   21   63 1
    67   23   64 1
    68   23   65 1
    69   24   66 1
    70   24   67 1
    71   25   68 1
    72   25   69 1
    73   26   70 1
    74   26   71 1
    75   27   72 1
    76   27   73 1
    77   28   74 1
    78   31   75 1
    79   31   76 1
    80   32   77 1
    81   32   78 1
    82   33   79 1
    83   34   80 1
@<TRIPOS>MOLECULE
1a46_ligand_233
   80    83     0     0     0
SMALL
USER_CHARGES

mmff94s_NoEstat = 85.80
@<TRIPOS>ATOM
      1 C1         -5.9518    1.0529  -15.7574 C.ar      1 <0>        -0.1300
      2 C2         -4.7078    1.6646  -15.9115 C.ar      1 <0>        -0.1323
      3 C3         -6.6077    1.1063  -14.5275 C.ar      1 <0>        -0.1309
      4 C4         -4.1196    2.3297  -14.8357 C.ar      1 <0>        -0.1275
      5 C5         -6.0195    1.7714  -13.4517 C.ar      1 <0>        -0.1272
      6 C6         -4.7793    2.3787  -13.6128 C.ar      1 <0>        -0.0843
      7 C7         -2.6173    2.8751  -10.4447 C.2       1 <0>         0.6709
      8 C8          2.7796    3.2097   -6.1637 C.2       1 <0>         0.4867
      9 C9          3.9990    3.9872   -5.7623 C.2       1 <0>         0.5883
     10 C10        -0.0591    2.8141   -8.5012 C.2       1 <0>         0.6572
     11 C11         9.3850    3.6101   -5.5083 C.3       1 <0>        -0.0802
     12 C12         8.4401    3.8908   -4.3433 C.3       1 <0>        -0.0765
     13 C13         8.8474    4.1778   -6.8189 C.3       1 <0>        -0.0774
     14 C14         7.0253    3.3919   -4.6323 C.3       1 <0>        -0.0953
     15 C15         7.4334    3.6786   -7.1110 C.3       1 <0>        -0.0906
     16 C16        -1.5879    1.1654   -7.3921 C.3       1 <0>        -0.0871
     17 C17        -4.1019    0.9486  -11.1228 C.3       1 <0>        -0.0716
     18 C18        -1.5823    0.0424   -8.4274 C.3       1 <0>         0.1333
     19 C19        -3.5290    0.2485   -9.8784 C.3       1 <0>         0.1246
     20 C20        -1.4789    2.4202   -8.2321 C.3       1 <0>         0.0606
     21 C21         6.4852    3.9734   -5.9435 C.3       1 <0>         0.1012
     22 C22        -3.2673    2.1480  -11.6303 C.3       1 <0>         0.1554
     23 C23        -4.1466    3.0941  -12.4556 C.3       1 <0>        -0.0356
     24 C24         1.4445    5.5921   -8.9731 C.3       1 <0>        -0.0795
     25 C25         1.6370    7.0835   -9.2718 C.3       1 <0>        -0.1203
     26 C26         2.1570    5.1335   -7.6933 C.3       1 <0>        -0.0920
     27 C27         0.9502    7.5360  -10.5601 C.3       1 <0>         0.1502
     28 C28         2.0196    3.6328   -7.4097 C.3       1 <0>         0.0224
     29 N1         -2.0587    2.0261   -9.5019 N.am      1 <0>        -0.3553
     30 N2         -2.1349    0.6298   -9.6602 N.3       1 <0>        -0.4320
     31 N3         -2.1572    1.6877  -12.4773 N.3       1 <0>        -0.9031
     32 N4          1.1922    8.9569  -10.7874 N.3       1 <0>        -0.9068
     33 N5          5.1626    3.4185   -6.2254 N.am      1 <0>        -0.5526
     34 N6          0.6426    3.2153   -7.3763 N.am      1 <0>        -0.5576
     35 O1         -2.5899    4.1027  -10.3594 O.2       1 <0>        -0.6710
     36 O2          2.4233    2.3196   -5.4021 O.2       1 <0>        -0.4901
     37 O3          3.8414    4.9860   -5.0794 O.2       1 <0>        -0.5902
     38 O4          0.3766    2.7593   -9.6452 O.2       1 <0>        -0.5833
     39 H1         -6.4098    0.5350  -16.5951 H         1 <0>         0.1320
     40 H2         -4.1972    1.6230  -16.8692 H         1 <0>         0.1324
     41 H3         -7.5763    0.6298  -14.4076 H         1 <0>         0.1328
     42 H4         -3.1501    2.8034  -14.9651 H         1 <0>         0.1324
     43 H5         -6.5379    1.8077  -12.4972 H         1 <0>         0.1434
     44 H6         10.3699    4.0410   -5.2964 H         1 <0>         0.0405
     45 H7          9.5247    2.5269   -5.6109 H         1 <0>         0.0421
     46 H8          8.8217    3.4105   -3.4353 H         1 <0>         0.0362
     47 H9          8.4124    4.9697   -4.1470 H         1 <0>         0.0439
     48 H10         8.8437    5.2736   -6.7687 H         1 <0>         0.0350
     49 H11         9.5141    3.8981   -7.6424 H         1 <0>         0.0428
     50 H12         7.0287    2.2950   -4.6816 H         1 <0>         0.0663
     51 H13         6.3626    3.6628   -3.8014 H         1 <0>         0.0466
     52 H14         7.0582    4.1516   -8.0267 H         1 <0>         0.0493
     53 H15         7.4614    2.5988   -7.3082 H         1 <0>         0.0520
     54 H16        -2.5475    1.1615   -6.8606 H         1 <0>         0.0915
     55 H17        -0.7842    1.0569   -6.6575 H         1 <0>         0.0601
     56 H18        -4.2204    0.2148  -11.9317 H         1 <0>         0.0688
     57 H19        -5.1178    1.2870  -10.8778 H         1 <0>         0.0630
     58 H20        -0.5477   -0.2605   -8.6286 H         1 <0>         0.0807
     59 H21        -2.1179   -0.8467   -8.0766 H         1 <0>         0.0380
     60 H22        -4.1468    0.5063   -9.0071 H         1 <0>         0.0484
     61 H23        -3.6100   -0.8367  -10.0142 H         1 <0>         0.0697
     62 H24        -2.0054    3.2790   -7.8063 H         1 <0>         0.0843
     63 H25         6.3486    5.0561   -5.8408 H         1 <0>         0.0831
     64 H26        -3.5359    3.9262  -12.8108 H         1 <0>         0.0704
     65 H27        -4.9137    3.5213  -11.8072 H         1 <0>         0.0718
     66 H28         0.3683    5.4079   -8.8774 H         1 <0>         0.0606
     67 H29         1.7918    5.0040   -9.8306 H         1 <0>         0.0458
     68 H30         1.2300    7.6523   -8.4256 H         1 <0>         0.0375
     69 H31         2.7093    7.3123   -9.3176 H         1 <0>         0.0392
     70 H32         1.7604    5.7005   -6.8419 H         1 <0>         0.0606
     71 H33         3.2243    5.3739   -7.7660 H         1 <0>         0.0579
     72 H34        -0.1287    7.3572  -10.4981 H         1 <0>         0.0571
     73 H35         1.3345    6.9786  -11.4193 H         1 <0>         0.0503
     74 H36         2.4714    3.0747   -8.2388 H         1 <0>         0.0993
     75 H37        -1.7180    0.8294  -12.2371 H         1 <0>         0.3700
     76 H38        -1.7642    2.3382  -13.1175 H         1 <0>         0.3660
     77 H39         0.7014    9.4044  -11.5317 H         1 <0>         0.3465
     78 H40         1.9755    9.3785  -10.3359 H         1 <0>         0.3446
     79 H41         5.1001    2.5754   -6.7883 H         1 <0>         0.3148
     80 H42         0.1596    3.2148   -6.4798 H         1 <0>         0.3220
@<TRIPOS>BOND
     1    1    2 ar
     2    1    3 ar
     3    2    4 ar
     4    3    5 ar
     5    4    6 ar
     6    5    6 ar
     7    6   23 1
     8    7   22 1
     9    7   29 am
    10    7   35 2
    11    8    9 1
    12    8   28 1
    13    8   36 2
    14    9   33 am
    15    9   37 2
    16   10   20 1
    17   10   34 am
    18   10   38 2
    19   11   12 1
    20   11   13 1
    21   12   14 1
    22   13   15 1
    23   14   21 1
    24   15   21 1
    25   16   18 1
    26   16   20 1
    27   17   19 1
    28   17   22 1
    29   18   30 1
    30   19   30 1
    31   20   29 1
    32   21   33 1
    33   22   23 1
    34   22   31 1
    35   24   25 1
    36   24   26 1
    37   25   27 1
    38   26   28 1
    39   27   32 1
    40   28   34 1
    41   29   30 1
    42    1   39 1
    43    2   40 1
    44    3   41 1
    45    4   42 1
    46    5   43 1
    47   11   44 1
    48   11   45 1
    49   12   46 1
    50   12   47 1
    51   13   48 1
    52   13   49 1
    53   14   50 1
    54   14   51 1
    55   15   52 1
    56   15   53 1
    57   16   54 1
    58   16   55 1
    59   17   56 1
    60   17   57 1
    61   18   58 1
    62   18   59 1
    63   19   60 1
    64   19   61 1
    65   20   62 1
    66   21   63 1
    67   23   64 1
    68   23   65 1
    69   24   66 1
    70   24   67 1
    71   25   68 1
    72   25   69 1
    73   26   70 1
    74   26   71 1
    75   27   72 1
    76   27   73 1
    77   28   74 1
    78   31   75 1
    79   31   76 1
    80   32   77 1
    81   32   78 1
    82   33   79 1
    83   34   80 1
@<TRIPOS>MOLECULE
1a46_ligand_234
   80    83     0     0     0
SMALL
USER_CHARGES

mmff94s_NoEstat = 85.89
@<TRIPOS>ATOM
      1 C1         11.1945    5.3647   -9.7731 C.ar      1 <0>        -0.1300
      2 C2         11.8337    5.1154   -8.5586 C.ar      1 <0>        -0.1323
      3 C3          9.8873    5.8513   -9.7863 C.ar      1 <0>        -0.1309
      4 C4         11.1656    5.3526   -7.3573 C.ar      1 <0>        -0.1275
      5 C5          9.2192    6.0884   -8.5850 C.ar      1 <0>        -0.1272
      6 C6          9.8628    5.8375   -7.3783 C.ar      1 <0>        -0.0843
      7 C7          7.6425    5.1042   -4.2977 C.2       1 <0>         0.6709
      8 C8          5.2358    2.3798    1.5634 C.2       1 <0>         0.4867
      9 C9          4.0737    1.7586    0.8450 C.2       1 <0>         0.5883
     10 C10         6.5256    3.6321   -1.6689 C.2       1 <0>         0.6572
     11 C11         5.0270   -1.9782   -2.2411 C.3       1 <0>        -0.0802
     12 C12         4.8199   -0.4904   -2.5121 C.3       1 <0>        -0.0765
     13 C13         4.9383   -2.3038   -0.7525 C.3       1 <0>        -0.0774
     14 C14         3.5153    0.0174   -1.8967 C.3       1 <0>        -0.0953
     15 C15         3.6331   -1.7920   -0.1414 C.3       1 <0>        -0.0906
     16 C16         4.6595    3.2577   -3.3009 C.3       1 <0>        -0.0871
     17 C17         7.3760    4.3986   -6.7074 C.3       1 <0>        -0.0716
     18 C18         5.3367    2.3027   -4.2819 C.3       1 <0>         0.1333
     19 C19         6.2012    3.5529   -6.1864 C.3       1 <0>         0.1246
     20 C20         5.7868    4.1659   -2.8575 C.3       1 <0>         0.0606
     21 C21         3.4011   -0.2972   -0.3991 C.3       1 <0>         0.1012
     22 C22         8.3797    4.8486   -5.6198 C.3       1 <0>         0.1554
     23 C23         9.1441    6.0926   -6.0861 C.3       1 <0>        -0.0356
     24 C24         6.0158    5.3379    2.0114 C.3       1 <0>        -0.0795
     25 C25         6.7209    6.4716    2.7653 C.3       1 <0>        -0.1203
     26 C26         6.9719    4.2276    1.5544 C.3       1 <0>        -0.0920
     27 C27         5.7742    7.5909    3.1979 C.3       1 <0>         0.1502
     28 C28         6.2906    3.1130    0.7514 C.3       1 <0>         0.0224
     29 N1          6.7058    4.1331   -3.9791 N.am      1 <0>        -0.3553
     30 N2          6.4777    3.0462   -4.8435 N.3       1 <0>        -0.4320
     31 N3          9.3531    3.7833   -5.3380 N.3       1 <0>        -0.9031
     32 N4          6.5168    8.6391    3.8900 N.3       1 <0>        -0.9068
     33 N5          4.3625    0.5037    0.3619 N.am      1 <0>        -0.5526
     34 N6          5.7762    3.5917   -0.5046 N.am      1 <0>        -0.5576
     35 O1          7.8821    6.0807   -3.5877 O.2       1 <0>        -0.6710
     36 O2          5.3022    2.1819    2.7699 O.2       1 <0>        -0.4901
     37 O3          3.0463    2.4099    0.7491 O.2       1 <0>        -0.5902
     38 O4          7.6924    3.2783   -1.7917 O.2       1 <0>        -0.5833
     39 H1         11.7147    5.1800  -10.7084 H         1 <0>         0.1320
     40 H2         12.8515    4.7366   -8.5485 H         1 <0>         0.1324
     41 H3          9.3897    6.0452  -10.7320 H         1 <0>         0.1328
     42 H4         11.6716    5.1554   -6.4159 H         1 <0>         0.1324
     43 H5          8.2009    6.4675   -8.6050 H         1 <0>         0.1434
     44 H6          4.2675   -2.5545   -2.7839 H         1 <0>         0.0405
     45 H7          6.0024   -2.2918   -2.6299 H         1 <0>         0.0421
     46 H8          5.6667    0.0764   -2.1065 H         1 <0>         0.0362
     47 H9          4.8088   -0.3123   -3.5935 H         1 <0>         0.0439
     48 H10         5.0101   -3.3880   -0.6088 H         1 <0>         0.0350
     49 H11         5.7927   -1.8578   -0.2293 H         1 <0>         0.0428
     50 H12         3.4361    1.0988   -2.0620 H         1 <0>         0.0663
     51 H13         2.6716   -0.4470   -2.4229 H         1 <0>         0.0466
     52 H14         2.7962   -2.3605   -0.5667 H         1 <0>         0.0493
     53 H15         3.6378   -1.9924    0.9369 H         1 <0>         0.0520
     54 H16         3.9023    3.8458   -3.8340 H         1 <0>         0.0915
     55 H17         4.1709    2.7289   -2.4768 H         1 <0>         0.0601
     56 H18         7.9078    3.8408   -7.4902 H         1 <0>         0.0688
     57 H19         6.9559    5.2827   -7.2061 H         1 <0>         0.0630
     58 H20         5.7303    1.4383   -3.7336 H         1 <0>         0.0807
     59 H21         4.6390    1.9190   -5.0344 H         1 <0>         0.0380
     60 H22         5.2889    4.1652   -6.1941 H         1 <0>         0.0484
     61 H23         6.0298    2.7205   -6.8794 H         1 <0>         0.0697
     62 H24         5.4651    5.1881   -2.6391 H         1 <0>         0.0843
     63 H25         2.4111   -0.0062   -0.0327 H         1 <0>         0.0831
     64 H26         9.8520    6.3858   -5.3087 H         1 <0>         0.0704
     65 H27         8.4405    6.9195   -6.1990 H         1 <0>         0.0718
     66 H28         5.2579    4.9142    2.6804 H         1 <0>         0.0606
     67 H29         5.4809    5.7546    1.1500 H         1 <0>         0.0458
     68 H30         7.2000    6.0392    3.6534 H         1 <0>         0.0375
     69 H31         7.5258    6.8807    2.1417 H         1 <0>         0.0392
     70 H32         7.4599    3.7926    2.4354 H         1 <0>         0.0606
     71 H33         7.7645    4.6634    0.9347 H         1 <0>         0.0579
     72 H34         4.9986    7.1962    3.8630 H         1 <0>         0.0571
     73 H35         5.2784    8.0349    2.3297 H         1 <0>         0.0503
     74 H36         7.0421    2.3587    0.4881 H         1 <0>         0.0993
     75 H37         9.0331    2.8434   -5.3754 H         1 <0>         0.3700
     76 H38        10.2196    4.0460   -4.9287 H         1 <0>         0.3660
     77 H39         5.9996    9.3711    4.3277 H         1 <0>         0.3465
     78 H40         7.4997    8.7018    3.7315 H         1 <0>         0.3446
     79 H41         5.2837    0.1150    0.5408 H         1 <0>         0.3148
     80 H42         4.8120    3.9176   -0.5391 H         1 <0>         0.3220
@<TRIPOS>BOND
     1    1    2 ar
     2    1    3 ar
     3    2    4 ar
     4    3    5 ar
     5    4    6 ar
     6    5    6 ar
     7    6   23 1
     8    7   22 1
     9    7   29 am
    10    7   35 2
    11    8    9 1
    12    8   28 1
    13    8   36 2
    14    9   33 am
    15    9   37 2
    16   10   20 1
    17   10   34 am
    18   10   38 2
    19   11   12 1
    20   11   13 1
    21   12   14 1
    22   13   15 1
    23   14   21 1
    24   15   21 1
    25   16   18 1
    26   16   20 1
    27   17   19 1
    28   17   22 1
    29   18   30 1
    30   19   30 1
    31   20   29 1
    32   21   33 1
    33   22   23 1
    34   22   31 1
    35   24   25 1
    36   24   26 1
    37   25   27 1
    38   26   28 1
    39   27   32 1
    40   28   34 1
    41   29   30 1
    42    1   39 1
    43    2   40 1
    44    3   41 1
    45    4   42 1
    46    5   43 1
    47   11   44 1
    48   11   45 1
    49   12   46 1
    50   12   47 1
    51   13   48 1
    52   13   49 1
    53   14   50 1
    54   14   51 1
    55   15   52 1
    56   15   53 1
    57   16   54 1
    58   16   55 1
    59   17   56 1
    60   17   57 1
    61   18   58 1
    62   18   59 1
    63   19   60 1
    64   19   61 1
    65   20   62 1
    66   21   63 1
    67   23   64 1
    68   23   65 1
    69   24   66 1
    70   24   67 1
    71   25   68 1
    72   25   69 1
    73   26   70 1
    74   26   71 1
    75   27   72 1
    76   27   73 1
    77   28   74 1
    78   31   75 1
    79   31   76 1
    80   32   77 1
    81   32   78 1
    82   33   79 1
    83   34   80 1
@<TRIPOS>MOLECULE
1a46_ligand_235
   80    83     0     0     0
SMALL
USER_CHARGES

mmff94s_NoEstat = 85.95
@<TRIPOS>ATOM
      1 C1         11.1411    8.8652   -7.4997 C.ar      1 <0>        -0.1300
      2 C2         11.6114    8.4390   -6.2577 C.ar      1 <0>        -0.1323
      3 C3          9.7702    8.8864   -7.7566 C.ar      1 <0>        -0.1309
      4 C4         10.7109    8.0339   -5.2725 C.ar      1 <0>        -0.1275
      5 C5          8.8697    8.4813   -6.7714 C.ar      1 <0>        -0.1272
      6 C6          9.3459    8.0577   -5.5358 C.ar      1 <0>        -0.0843
      7 C7          7.0979    5.6684   -3.4876 C.2       1 <0>         0.6709
      8 C8          5.2358    2.3798    1.5634 C.2       1 <0>         0.4867
      9 C9          4.0737    1.7586    0.8450 C.2       1 <0>         0.5883
     10 C10         6.2126    3.1256   -1.7338 C.2       1 <0>         0.6572
     11 C11         5.0270   -1.9782   -2.2411 C.3       1 <0>        -0.0802
     12 C12         4.8199   -0.4904   -2.5121 C.3       1 <0>        -0.0765
     13 C13         4.9383   -2.3038   -0.7525 C.3       1 <0>        -0.0774
     14 C14         3.5153    0.0174   -1.8967 C.3       1 <0>        -0.0953
     15 C15         3.6331   -1.7920   -0.1414 C.3       1 <0>        -0.0906
     16 C16         4.9436    2.7496   -3.8630 C.3       1 <0>        -0.0871
     17 C17         7.5380    5.7673   -5.9719 C.3       1 <0>        -0.0716
     18 C18         6.0937    2.4470   -4.8215 C.3       1 <0>         0.1333
     19 C19         6.7139    4.4696   -6.0305 C.3       1 <0>         0.1246
     20 C20         5.5372    3.7637   -2.9085 C.3       1 <0>         0.0606
     21 C21         3.4011   -0.2972   -0.3991 C.3       1 <0>         0.1012
     22 C22         8.0887    6.1196   -4.5700 C.3       1 <0>         0.1554
     23 C23         8.3772    7.6220   -4.4760 C.3       1 <0>        -0.0356
     24 C24         6.0158    5.3379    2.0114 C.3       1 <0>        -0.0795
     25 C25         6.7209    6.4716    2.7653 C.3       1 <0>        -0.1203
     26 C26         6.9719    4.2276    1.5544 C.3       1 <0>        -0.0920
     27 C27         5.7742    7.5909    3.1979 C.3       1 <0>         0.1502
     28 C28         6.2906    3.1130    0.7514 C.3       1 <0>         0.0224
     29 N1          6.5723    4.4030   -3.6984 N.am      1 <0>        -0.3553
     30 N2          6.9338    3.6570   -4.8356 N.3       1 <0>        -0.4320
     31 N3          9.3363    5.3890   -4.3028 N.3       1 <0>        -0.9031
     32 N4          4.7531    7.0666    4.0988 N.3       1 <0>        -0.9068
     33 N5          4.3625    0.5037    0.3619 N.am      1 <0>        -0.5526
     34 N6          5.7762    3.5917   -0.5046 N.am      1 <0>        -0.5576
     35 O1          6.8158    6.3720   -2.5178 O.2       1 <0>        -0.6710
     36 O2          5.3022    2.1819    2.7699 O.2       1 <0>        -0.4901
     37 O3          3.0463    2.4099    0.7491 O.2       1 <0>        -0.5902
     38 O4          7.0689    2.2691   -1.9210 O.2       1 <0>        -0.5833
     39 H1         11.8422    9.1805   -8.2669 H         1 <0>         0.1320
     40 H2         12.6788    8.4225   -6.0578 H         1 <0>         0.1324
     41 H3          9.4041    9.2181   -8.7239 H         1 <0>         0.1328
     42 H4         11.0865    7.7034   -4.3077 H         1 <0>         0.1324
     43 H5          7.8034    8.5011   -6.9806 H         1 <0>         0.1434
     44 H6          4.2675   -2.5545   -2.7839 H         1 <0>         0.0405
     45 H7          6.0024   -2.2918   -2.6299 H         1 <0>         0.0421
     46 H8          5.6667    0.0764   -2.1065 H         1 <0>         0.0362
     47 H9          4.8088   -0.3123   -3.5935 H         1 <0>         0.0439
     48 H10         5.0101   -3.3880   -0.6088 H         1 <0>         0.0350
     49 H11         5.7927   -1.8578   -0.2293 H         1 <0>         0.0428
     50 H12         3.4361    1.0988   -2.0620 H         1 <0>         0.0663
     51 H13         2.6716   -0.4470   -2.4229 H         1 <0>         0.0466
     52 H14         2.7962   -2.3605   -0.5667 H         1 <0>         0.0493
     53 H15         3.6378   -1.9924    0.9369 H         1 <0>         0.0520
     54 H16         4.1195    3.2100   -4.4221 H         1 <0>         0.0915
     55 H17         4.5667    1.8489   -3.3690 H         1 <0>         0.0601
     56 H18         8.3688    5.7042   -6.6879 H         1 <0>         0.0688
     57 H19         6.8987    6.5856   -6.3304 H         1 <0>         0.0630
     58 H20         6.6930    1.6211   -4.4197 H         1 <0>         0.0807
     59 H21         5.7379    2.1381   -5.8106 H         1 <0>         0.0380
     60 H22         5.6510    4.7258   -6.1401 H         1 <0>         0.0484
     61 H23         6.9989    3.9097   -6.9293 H         1 <0>         0.0697
     62 H24         4.8121    4.4950   -2.5402 H         1 <0>         0.0843
     63 H25         2.4111   -0.0062   -0.0327 H         1 <0>         0.0831
     64 H26         8.7732    7.8456   -3.4837 H         1 <0>         0.0704
     65 H27         7.4380    8.1701   -4.5707 H         1 <0>         0.0718
     66 H28         5.2579    4.9142    2.6804 H         1 <0>         0.0606
     67 H29         5.4809    5.7546    1.1500 H         1 <0>         0.0458
     68 H30         7.2000    6.0392    3.6534 H         1 <0>         0.0375
     69 H31         7.5258    6.8807    2.1417 H         1 <0>         0.0392
     70 H32         7.4599    3.7926    2.4354 H         1 <0>         0.0606
     71 H33         7.7645    4.6634    0.9347 H         1 <0>         0.0579
     72 H34         5.2908    8.0386    2.3228 H         1 <0>         0.0571
     73 H35         6.3225    8.3806    3.7198 H         1 <0>         0.0503
     74 H36         7.0421    2.3587    0.4881 H         1 <0>         0.0993
     75 H37         9.4175    4.4664   -4.6628 H         1 <0>         0.3700
     76 H38         9.9501    5.7594   -3.6148 H         1 <0>         0.3660
     77 H39         4.0028    7.6695    4.3608 H         1 <0>         0.3465
     78 H40         4.9421    6.2118    4.5770 H         1 <0>         0.3446
     79 H41         5.2837    0.1150    0.5408 H         1 <0>         0.3148
     80 H42         5.0545    4.3100   -0.4888 H         1 <0>         0.3220
@<TRIPOS>BOND
     1    1    2 ar
     2    1    3 ar
     3    2    4 ar
     4    3    5 ar
     5    4    6 ar
     6    5    6 ar
     7    6   23 1
     8    7   22 1
     9    7   29 am
    10    7   35 2
    11    8    9 1
    12    8   28 1
    13    8   36 2
    14    9   33 am
    15    9   37 2
    16   10   20 1
    17   10   34 am
    18   10   38 2
    19   11   12 1
    20   11   13 1
    21   12   14 1
    22   13   15 1
    23   14   21 1
    24   15   21 1
    25   16   18 1
    26   16   20 1
    27   17   19 1
    28   17   22 1
    29   18   30 1
    30   19   30 1
    31   20   29 1
    32   21   33 1
    33   22   23 1
    34   22   31 1
    35   24   25 1
    36   24   26 1
    37   25   27 1
    38   26   28 1
    39   27   32 1
    40   28   34 1
    41   29   30 1
    42    1   39 1
    43    2   40 1
    44    3   41 1
    45    4   42 1
    46    5   43 1
    47   11   44 1
    48   11   45 1
    49   12   46 1
    50   12   47 1
    51   13   48 1
    52   13   49 1
    53   14   50 1
    54   14   51 1
    55   15   52 1
    56   15   53 1
    57   16   54 1
    58   16   55 1
    59   17   56 1
    60   17   57 1
    61   18   58 1
    62   18   59 1
    63   19   60 1
    64   19   61 1
    65   20   62 1
    66   21   63 1
    67   23   64 1
    68   23   65 1
    69   24   66 1
    70   24   67 1
    71   25   68 1
    72   25   69 1
    73   26   70 1
    74   26   71 1
    75   27   72 1
    76   27   73 1
    77   28   74 1
    78   31   75 1
    79   31   76 1
    80   32   77 1
    81   32   78 1
    82   33   79 1
    83   34   80 1
@<TRIPOS>MOLECULE
1a46_ligand_236
   80    83     0     0     0
SMALL
USER_CHARGES

mmff94s_NoEstat = 85.95
@<TRIPOS>ATOM
      1 C1         -4.2961    6.3604   -2.7495 C.ar      1 <0>        -0.1300
      2 C2         -3.8917    5.7888   -1.5431 C.ar      1 <0>        -0.1323
      3 C3         -3.4839    6.2539   -3.8786 C.ar      1 <0>        -0.1309
      4 C4         -2.6752    5.1109   -1.4657 C.ar      1 <0>        -0.1275
      5 C5         -2.2674    5.5759   -3.8012 C.ar      1 <0>        -0.1272
      6 C6         -1.8709    5.0088   -2.5952 C.ar      1 <0>        -0.0843
      7 C7          1.9202    4.4855   -2.0375 C.2       1 <0>         0.6709
      8 C8          5.2358    2.3798    1.5634 C.2       1 <0>         0.4867
      9 C9          4.0737    1.7586    0.8450 C.2       1 <0>         0.5883
     10 C10         4.7954    4.5647   -0.6048 C.2       1 <0>         0.6572
     11 C11         4.4065   -3.0273   -0.3301 C.3       1 <0>        -0.0802
     12 C12         4.6731   -1.7761   -1.1628 C.3       1 <0>        -0.0765
     13 C13         3.9965   -2.6835    1.0994 C.3       1 <0>        -0.0774
     14 C14         3.4850   -0.8139   -1.1289 C.3       1 <0>        -0.0953
     15 C15         2.8097   -1.7194    1.1279 C.3       1 <0>        -0.0906
     16 C16         5.1345    6.1376   -2.5274 C.3       1 <0>        -0.0871
     17 C17         0.6797    6.3873   -3.1418 C.3       1 <0>        -0.0716
     18 C18         4.2227    7.2889   -2.1078 C.3       1 <0>         0.1333
     19 C19         2.0578    7.0682   -3.2043 C.3       1 <0>         0.1246
     20 C20         4.4137    4.9104   -2.0113 C.3       1 <0>         0.0606
     21 C21         3.0526   -0.4516    0.2982 C.3       1 <0>         0.1012
     22 C22         0.5786    5.2268   -2.1241 C.3       1 <0>         0.1554
     23 C23        -0.5623    4.2796   -2.5120 C.3       1 <0>        -0.0356
     24 C24         8.0800    4.9598    0.7851 C.3       1 <0>        -0.0795
     25 C25         8.7880    6.0338    1.6192 C.3       1 <0>        -0.1203
     26 C26         6.9719    4.2276    1.5544 C.3       1 <0>        -0.0920
     27 C27         9.9095    6.7454    0.8629 C.3       1 <0>         0.1502
     28 C28         6.2906    3.1130    0.7514 C.3       1 <0>         0.0224
     29 N1          3.0235    5.3233   -1.9852 N.am      1 <0>        -0.3553
     30 N2          2.8653    6.7208   -2.0365 N.3       1 <0>        -0.4320
     31 N3          0.3159    5.7420   -0.7724 N.3       1 <0>        -0.9031
     32 N4         10.5470    7.7366    1.7233 N.3       1 <0>        -0.9068
     33 N5          4.0688    0.3864    0.9385 N.am      1 <0>        -0.5526
     34 N6          5.7762    3.5917   -0.5046 N.am      1 <0>        -0.5576
     35 O1          1.9934    3.2573   -2.0040 O.2       1 <0>        -0.6710
     36 O2          5.3022    2.1819    2.7699 O.2       1 <0>        -0.4901
     37 O3          3.3003    2.4996    0.2605 O.2       1 <0>        -0.5902
     38 O4          4.2448    5.1367    0.3286 O.2       1 <0>        -0.5833
     39 H1         -5.2433    6.8883   -2.8098 H         1 <0>         0.1320
     40 H2         -4.5242    5.8718   -0.6641 H         1 <0>         0.1324
     41 H3         -3.7988    6.6991   -4.8178 H         1 <0>         0.1328
     42 H4         -2.3683    4.6687   -0.5215 H         1 <0>         0.1324
     43 H5         -1.6411    5.4981   -4.6860 H         1 <0>         0.1434
     44 H6          3.6105   -3.6151   -0.8039 H         1 <0>         0.0405
     45 H7          5.3022   -3.6585   -0.3154 H         1 <0>         0.0421
     46 H8          5.5706   -1.2707   -0.7862 H         1 <0>         0.0362
     47 H9          4.8830   -2.0630   -2.1996 H         1 <0>         0.0439
     48 H10         3.7359   -3.6020    1.6377 H         1 <0>         0.0350
     49 H11         4.8487   -2.2383    1.6270 H         1 <0>         0.0428
     50 H12         3.7413    0.0946   -1.6874 H         1 <0>         0.0663
     51 H13         2.6383   -1.2788   -1.6497 H         1 <0>         0.0466
     52 H14         1.9241   -2.2364    0.7368 H         1 <0>         0.0493
     53 H15         2.5879   -1.4524    2.1683 H         1 <0>         0.0520
     54 H16         5.1868    6.0993   -3.6226 H         1 <0>         0.0915
     55 H17         6.1502    6.2483   -2.1355 H         1 <0>         0.0601
     56 H18        -0.0889    7.1398   -2.9187 H         1 <0>         0.0688
     57 H19         0.4458    6.0134   -4.1479 H         1 <0>         0.0630
     58 H20         4.5037    7.6265   -1.1030 H         1 <0>         0.0807
     59 H21         4.3115    8.1522   -2.7765 H         1 <0>         0.0380
     60 H22         2.5627    6.7687   -4.1331 H         1 <0>         0.0484
     61 H23         1.9139    8.1541   -3.2580 H         1 <0>         0.0697
     62 H24         4.5519    4.0254   -2.6387 H         1 <0>         0.0843
     63 H25         2.1402    0.1531    0.2678 H         1 <0>         0.0831
     64 H26        -0.6211    3.4755   -1.7762 H         1 <0>         0.0704
     65 H27        -0.3254    3.8127   -3.4698 H         1 <0>         0.0718
     66 H28         7.6494    5.4516   -0.0948 H         1 <0>         0.0606
     67 H29         8.8216    4.2418    0.4157 H         1 <0>         0.0458
     68 H30         8.0356    6.7709    1.9287 H         1 <0>         0.0375
     69 H31         9.1825    5.5824    2.5383 H         1 <0>         0.0392
     70 H32         6.2171    4.9575    1.8728 H         1 <0>         0.0606
     71 H33         7.3929    3.7874    2.4660 H         1 <0>         0.0579
     72 H34         9.5108    7.2416   -0.0285 H         1 <0>         0.0571
     73 H35        10.6706    6.0303    0.5375 H         1 <0>         0.0503
     74 H36         7.0421    2.3587    0.4881 H         1 <0>         0.0993
     75 H37         0.7364    6.6054   -0.5173 H         1 <0>         0.3700
     76 H38        -0.0926    5.1211   -0.1128 H         1 <0>         0.3660
     77 H39        11.2163    8.3531    1.3147 H         1 <0>         0.3465
     78 H40        10.4498    7.6340    2.7108 H         1 <0>         0.3446
     79 H41         4.8027   -0.0660    1.4755 H         1 <0>         0.3148
     80 H42         6.1527    3.1949   -1.3636 H         1 <0>         0.3220
@<TRIPOS>BOND
     1    1    2 ar
     2    1    3 ar
     3    2    4 ar
     4    3    5 ar
     5    4    6 ar
     6    5    6 ar
     7    6   23 1
     8    7   22 1
     9    7   29 am
    10    7   35 2
    11    8    9 1
    12    8   28 1
    13    8   36 2
    14    9   33 am
    15    9   37 2
    16   10   20 1
    17   10   34 am
    18   10   38 2
    19   11   12 1
    20   11   13 1
    21   12   14 1
    22   13   15 1
    23   14   21 1
    24   15   21 1
    25   16   18 1
    26   16   20 1
    27   17   19 1
    28   17   22 1
    29   18   30 1
    30   19   30 1
    31   20   29 1
    32   21   33 1
    33   22   23 1
    34   22   31 1
    35   24   25 1
    36   24   26 1
    37   25   27 1
    38   26   28 1
    39   27   32 1
    40   28   34 1
    41   29   30 1
    42    1   39 1
    43    2   40 1
    44    3   41 1
    45    4   42 1
    46    5   43 1
    47   11   44 1
    48   11   45 1
    49   12   46 1
    50   12   47 1
    51   13   48 1
    52   13   49 1
    53   14   50 1
    54   14   51 1
    55   15   52 1
    56   15   53 1
    57   16   54 1
    58   16   55 1
    59   17   56 1
    60   17   57 1
    61   18   58 1
    62   18   59 1
    63   19   60 1
    64   19   61 1
    65   20   62 1
    66   21   63 1
    67   23   64 1
    68   23   65 1
    69   24   66 1
    70   24   67 1
    71   25   68 1
    72   25   69 1
    73   26   70 1
    74   26   71 1
    75   27   72 1
    76   27   73 1
    77   28   74 1
    78   31   75 1
    79   31   76 1
    80   32   77 1
    81   32   78 1
    82   33   79 1
    83   34   80 1
@<TRIPOS>MOLECULE
1a46_ligand_237
   80    83     0     0     0
SMALL
USER_CHARGES

mmff94s_NoEstat = 85.95
@<TRIPOS>ATOM
      1 C1          8.7841   12.3584   -5.8200 C.ar      1 <0>        -0.1300
      2 C2          9.2413   12.0197   -4.5466 C.ar      1 <0>        -0.1323
      3 C3          7.6186   11.7776   -6.3200 C.ar      1 <0>        -0.1309
      4 C4          8.5332   11.1000   -3.7731 C.ar      1 <0>        -0.1275
      5 C5          6.9105   10.8578   -5.5465 C.ar      1 <0>        -0.1272
      6 C6          7.3724   10.5251   -4.2781 C.ar      1 <0>        -0.0843
      7 C7          6.3227    7.0882   -2.8484 C.2       1 <0>         0.6709
      8 C8          5.2358    2.3798    1.5634 C.2       1 <0>         0.4867
      9 C9          5.6522    1.1980    2.3894 C.2       1 <0>         0.5883
     10 C10         6.5648    4.1956   -1.4701 C.2       1 <0>         0.6572
     11 C11         5.8911   -3.1928    0.1399 C.3       1 <0>        -0.0802
     12 C12         4.7903   -2.5697    0.9943 C.3       1 <0>        -0.0765
     13 C13         7.0788   -2.2502   -0.0351 C.3       1 <0>        -0.0774
     14 C14         5.3303   -2.0814    2.3392 C.3       1 <0>        -0.0953
     15 C15         7.6136   -1.7629    1.3123 C.3       1 <0>        -0.0906
     16 C16         5.9150    3.5956   -3.8160 C.3       1 <0>        -0.0871
     17 C17         6.9686    7.7509   -5.1976 C.3       1 <0>        -0.0716
     18 C18         7.1782    4.0100   -4.5681 C.3       1 <0>         0.1333
     19 C19         6.8896    6.2440   -5.4973 C.3       1 <0>         0.1246
     20 C20         5.8189    4.6139   -2.6998 C.3       1 <0>         0.0606
     21 C21         6.5260   -1.1310    2.1912 C.3       1 <0>         0.1012
     22 C22         7.0990    8.1048   -3.6974 C.3       1 <0>         0.1554
     23 C23         6.6107    9.5357   -3.4460 C.3       1 <0>        -0.0356
     24 C24         7.6485    3.7409    2.8432 C.3       1 <0>        -0.0795
     25 C25         8.2774    4.8743    3.6620 C.3       1 <0>        -0.1203
     26 C26         6.9719    4.2276    1.5544 C.3       1 <0>        -0.0920
     27 C27         8.9284    4.3945    4.9589 C.3       1 <0>         0.1502
     28 C28         6.2906    3.1130    0.7514 C.3       1 <0>         0.0224
     29 N1          6.5058    5.7713   -3.2406 N.am      1 <0>        -0.3553
     30 N2          7.3227    5.4587   -4.3431 N.3       1 <0>        -0.4320
     31 N3          8.4993    8.0079   -3.2602 N.3       1 <0>        -0.9031
     32 N4          9.4866    5.5266    5.6910 N.3       1 <0>        -0.9068
     33 N5          6.0911    0.1457    1.6201 N.am      1 <0>        -0.5526
     34 N6          5.7762    3.5917   -0.5046 N.am      1 <0>        -0.5576
     35 O1          5.6162    7.4259   -1.8987 O.2       1 <0>        -0.6710
     36 O2          4.0675    2.7325    1.6631 O.2       1 <0>        -0.4901
     37 O3          5.5431    1.2807    3.6019 O.2       1 <0>        -0.5902
     38 O4          7.7705    4.4014   -1.3956 O.2       1 <0>        -0.5833
     39 H1          9.3355   13.0745   -6.4223 H         1 <0>         0.1320
     40 H2         10.1488   12.4721   -4.1574 H         1 <0>         0.1324
     41 H3          7.2628   12.0413   -7.3117 H         1 <0>         0.1328
     42 H4          8.8970   10.8421   -2.7820 H         1 <0>         0.1324
     43 H5          6.0035   10.4103   -5.9443 H         1 <0>         0.1434
     44 H6          6.2329   -4.1227    0.6110 H         1 <0>         0.0405
     45 H7          5.4871   -3.4636   -0.8422 H         1 <0>         0.0421
     46 H8          4.3356   -1.7325    0.4511 H         1 <0>         0.0362
     47 H9          3.9961   -3.3058    1.1637 H         1 <0>         0.0439
     48 H10         7.8774   -2.7635   -0.5827 H         1 <0>         0.0350
     49 H11         6.7768   -1.3914   -0.6467 H         1 <0>         0.0428
     50 H12         4.5228   -1.5882    2.8938 H         1 <0>         0.0663
     51 H13         5.6388   -2.9510    2.9333 H         1 <0>         0.0466
     52 H14         8.0534   -2.6142    1.8474 H         1 <0>         0.0493
     53 H15         8.4235   -1.0439    1.1392 H         1 <0>         0.0520
     54 H16         5.0489    3.6975   -4.4816 H         1 <0>         0.0915
     55 H17         5.9620    2.5605   -3.4641 H         1 <0>         0.0601
     56 H18         7.8089    8.1894   -5.7531 H         1 <0>         0.0688
     57 H19         6.0643    8.2210   -5.6074 H         1 <0>         0.0630
     58 H20         8.0462    3.5082   -4.1236 H         1 <0>         0.0807
     59 H21         7.1438    3.7229   -5.6248 H         1 <0>         0.0380
     60 H22         5.8587    5.9894   -5.7800 H         1 <0>         0.0484
     61 H23         7.5203    6.0225   -6.3666 H         1 <0>         0.0697
     62 H24         4.7909    4.8594   -2.4187 H         1 <0>         0.0843
     63 H25         6.9368   -0.8941    3.1782 H         1 <0>         0.0831
     64 H26         6.7207    9.7666   -2.3849 H         1 <0>         0.0704
     65 H27         5.5439    9.5911   -3.6710 H         1 <0>         0.0718
     66 H28         8.4445    3.0306    2.5915 H         1 <0>         0.0606
     67 H29         6.9275    3.2007    3.4679 H         1 <0>         0.0458
     68 H30         9.0354    5.3625    3.0356 H         1 <0>         0.0375
     69 H31         7.5157    5.6329    3.8824 H         1 <0>         0.0392
     70 H32         7.7210    4.7221    0.9235 H         1 <0>         0.0606
     71 H33         6.2174    4.9831    1.8035 H         1 <0>         0.0579
     72 H34         9.7251    3.6753    4.7403 H         1 <0>         0.0571
     73 H35         8.1937    3.8977    5.5994 H         1 <0>         0.0503
     74 H36         7.0421    2.3587    0.4881 H         1 <0>         0.0993
     75 H37         9.0611    7.2946   -3.6639 H         1 <0>         0.3700
     76 H38         8.7654    8.5137   -2.4473 H         1 <0>         0.3660
     77 H39        10.0430    5.3371    6.4969 H         1 <0>         0.3465
     78 H40         9.1331    6.4373    5.4892 H         1 <0>         0.3446
     79 H41         6.1146    0.2589    0.6111 H         1 <0>         0.3148
     80 H42         4.7816    3.4809   -0.6931 H         1 <0>         0.3220
@<TRIPOS>BOND
     1    1    2 ar
     2    1    3 ar
     3    2    4 ar
     4    3    5 ar
     5    4    6 ar
     6    5    6 ar
     7    6   23 1
     8    7   22 1
     9    7   29 am
    10    7   35 2
    11    8    9 1
    12    8   28 1
    13    8   36 2
    14    9   33 am
    15    9   37 2
    16   10   20 1
    17   10   34 am
    18   10   38 2
    19   11   12 1
    20   11   13 1
    21   12   14 1
    22   13   15 1
    23   14   21 1
    24   15   21 1
    25   16   18 1
    26   16   20 1
    27   17   19 1
    28   17   22 1
    29   18   30 1
    30   19   30 1
    31   20   29 1
    32   21   33 1
    33   22   23 1
    34   22   31 1
    35   24   25 1
    36   24   26 1
    37   25   27 1
    38   26   28 1
    39   27   32 1
    40   28   34 1
    41   29   30 1
    42    1   39 1
    43    2   40 1
    44    3   41 1
    45    4   42 1
    46    5   43 1
    47   11   44 1
    48   11   45 1
    49   12   46 1
    50   12   47 1
    51   13   48 1
    52   13   49 1
    53   14   50 1
    54   14   51 1
    55   15   52 1
    56   15   53 1
    57   16   54 1
    58   16   55 1
    59   17   56 1
    60   17   57 1
    61   18   58 1
    62   18   59 1
    63   19   60 1
    64   19   61 1
    65   20   62 1
    66   21   63 1
    67   23   64 1
    68   23   65 1
    69   24   66 1
    70   24   67 1
    71   25   68 1
    72   25   69 1
    73   26   70 1
    74   26   71 1
    75   27   72 1
    76   27   73 1
    77   28   74 1
    78   31   75 1
    79   31   76 1
    80   32   77 1
    81   32   78 1
    82   33   79 1
    83   34   80 1
@<TRIPOS>MOLECULE
1a46_ligand_238
   80    83     0     0     0
SMALL
USER_CHARGES

mmff94s_NoEstat = 85.96
@<TRIPOS>ATOM
      1 C1          5.9504   -1.3642  -10.1903 C.ar      1 <0>        -0.1300
      2 C2          6.6765   -1.8241   -9.0918 C.ar      1 <0>        -0.1323
      3 C3          5.5463   -0.0305  -10.2504 C.ar      1 <0>        -0.1309
      4 C4          6.9984   -0.9504   -8.0532 C.ar      1 <0>        -0.1275
      5 C5          5.8681    0.8432   -9.2119 C.ar      1 <0>        -0.1272
      6 C6          6.5921    0.3776   -8.1201 C.ar      1 <0>        -0.0843
      7 C7          6.1974    2.2868   -4.7798 C.2       1 <0>         0.6709
      8 C8          5.2358    2.3798    1.5634 C.2       1 <0>         0.4867
      9 C9          5.3950    2.3039    3.0538 C.2       1 <0>         0.5883
     10 C10         5.7098    2.8119   -1.6475 C.2       1 <0>         0.6572
     11 C11         1.4721    3.3012    5.8846 C.3       1 <0>        -0.0802
     12 C12         2.2288    4.4874    5.2926 C.3       1 <0>        -0.0765
     13 C13         2.0779    1.9676    5.4553 C.3       1 <0>        -0.0774
     14 C14         3.7235    4.4153    5.6076 C.3       1 <0>        -0.0953
     15 C15         3.5730    1.9014    5.7703 C.3       1 <0>        -0.0906
     16 C16         3.6723    3.8570   -2.6681 C.3       1 <0>        -0.0871
     17 C17         4.4858    1.7161   -6.5463 C.3       1 <0>        -0.0716
     18 C18         2.9535    2.6133   -3.1875 C.3       1 <0>         0.1333
     19 C19         3.4659    2.2898   -5.5476 C.3       1 <0>         0.1246
     20 C20         5.1372    3.5153   -2.8394 C.3       1 <0>         0.0606
     21 C21         4.3575    3.0833    5.1852 C.3       1 <0>         0.1012
     22 C22         5.8481    1.3265   -5.9256 C.3       1 <0>         0.1554
     23 C23         6.9383    1.3175   -7.0029 C.3       1 <0>        -0.0356
     24 C24         6.0158    5.3379    2.0114 C.3       1 <0>        -0.0795
     25 C25         6.7209    6.4716    2.7653 C.3       1 <0>        -0.1203
     26 C26         6.9719    4.2276    1.5544 C.3       1 <0>        -0.0920
     27 C27         5.7742    7.5909    3.1979 C.3       1 <0>         0.1502
     28 C28         6.2906    3.1130    0.7514 C.3       1 <0>         0.0224
     29 N1          5.1345    2.5635   -3.9339 N.am      1 <0>        -0.3553
     30 N2          3.8653    2.0037   -4.1710 N.3       1 <0>        -0.4320
     31 N3          5.7803   -0.0123   -5.3216 N.3       1 <0>        -0.9031
     32 N4          6.5168    8.6391    3.8900 N.3       1 <0>        -0.9068
     33 N5          4.4068    2.9859    3.7248 N.am      1 <0>        -0.5526
     34 N6          5.7762    3.5917   -0.5046 N.am      1 <0>        -0.5576
     35 O1          7.3278    2.7504   -4.6301 O.2       1 <0>        -0.6710
     36 O2          4.2060    1.9080    1.0985 O.2       1 <0>        -0.4901
     37 O3          6.3530    1.6912    3.4962 O.2       1 <0>        -0.5902
     38 O4          6.0670    1.6440   -1.7490 O.2       1 <0>        -0.5833
     39 H1          5.6997   -2.0446  -10.9989 H         1 <0>         0.1320
     40 H2          6.9911   -2.8626   -9.0451 H         1 <0>         0.1324
     41 H3          4.9808    0.3274  -11.1059 H         1 <0>         0.1328
     42 H4          7.5644   -1.3176   -7.2012 H         1 <0>         0.1324
     43 H5          5.5489    1.8806   -9.2673 H         1 <0>         0.1434
     44 H6          1.4884    3.3709    6.9793 H         1 <0>         0.0405
     45 H7          0.4207    3.3445    5.5787 H         1 <0>         0.0421
     46 H8          2.0792    4.5112    4.2065 H         1 <0>         0.0362
     47 H9          1.8152    5.4216    5.6896 H         1 <0>         0.0439
     48 H10         1.5591    1.1476    5.9648 H         1 <0>         0.0350
     49 H11         1.9187    1.8232    4.3798 H         1 <0>         0.0428
     50 H12         4.2361    5.2502    5.1146 H         1 <0>         0.0663
     51 H13         3.8643    4.5494    6.6877 H         1 <0>         0.0466
     52 H14         3.7051    1.8909    6.8597 H         1 <0>         0.0493
     53 H15         3.9788    0.9553    5.3920 H         1 <0>         0.0520
     54 H16         3.4181    4.7133   -3.3051 H         1 <0>         0.0915
     55 H17         3.3944    4.0971   -1.6373 H         1 <0>         0.0601
     56 H18         4.0497    0.8441   -7.0524 H         1 <0>         0.0688
     57 H19         4.6431    2.4675   -7.3320 H         1 <0>         0.0630
     58 H20         2.8170    1.9026   -2.3635 H         1 <0>         0.0807
     59 H21         1.9588    2.8453   -3.5837 H         1 <0>         0.0380
     60 H22         3.3744    3.3723   -5.7123 H         1 <0>         0.0484
     61 H23         2.4818    1.8533   -5.7569 H         1 <0>         0.0697
     62 H24         5.7646    4.3810   -3.0694 H         1 <0>         0.0843
     63 H25         5.3980    3.0429    5.5243 H         1 <0>         0.0831
     64 H26         7.8868    1.0311   -6.5450 H         1 <0>         0.0704
     65 H27         7.0672    2.3317   -7.3854 H         1 <0>         0.0718
     66 H28         5.2579    4.9142    2.6804 H         1 <0>         0.0606
     67 H29         5.4809    5.7546    1.1500 H         1 <0>         0.0458
     68 H30         7.2000    6.0392    3.6534 H         1 <0>         0.0375
     69 H31         7.5258    6.8807    2.1417 H         1 <0>         0.0392
     70 H32         7.4599    3.7926    2.4354 H         1 <0>         0.0606
     71 H33         7.7645    4.6634    0.9347 H         1 <0>         0.0579
     72 H34         4.9986    7.1962    3.8630 H         1 <0>         0.0571
     73 H35         5.2784    8.0349    2.3297 H         1 <0>         0.0503
     74 H36         7.0421    2.3587    0.4881 H         1 <0>         0.0993
     75 H37         4.9287   -0.2795   -4.8849 H         1 <0>         0.3700
     76 H38         6.6336   -0.5056   -5.1950 H         1 <0>         0.3660
     77 H39         5.9996    9.3711    4.3277 H         1 <0>         0.3465
     78 H40         7.4997    8.7018    3.7315 H         1 <0>         0.3446
     79 H41         3.6788    3.4423    3.1832 H         1 <0>         0.3148
     80 H42         5.4441    4.5531   -0.5557 H         1 <0>         0.3220
@<TRIPOS>BOND
     1    1    2 ar
     2    1    3 ar
     3    2    4 ar
     4    3    5 ar
     5    4    6 ar
     6    5    6 ar
     7    6   23 1
     8    7   22 1
     9    7   29 am
    10    7   35 2
    11    8    9 1
    12    8   28 1
    13    8   36 2
    14    9   33 am
    15    9   37 2
    16   10   20 1
    17   10   34 am
    18   10   38 2
    19   11   12 1
    20   11   13 1
    21   12   14 1
    22   13   15 1
    23   14   21 1
    24   15   21 1
    25   16   18 1
    26   16   20 1
    27   17   19 1
    28   17   22 1
    29   18   30 1
    30   19   30 1
    31   20   29 1
    32   21   33 1
    33   22   23 1
    34   22   31 1
    35   24   25 1
    36   24   26 1
    37   25   27 1
    38   26   28 1
    39   27   32 1
    40   28   34 1
    41   29   30 1
    42    1   39 1
    43    2   40 1
    44    3   41 1
    45    4   42 1
    46    5   43 1
    47   11   44 1
    48   11   45 1
    49   12   46 1
    50   12   47 1
    51   13   48 1
    52   13   49 1
    53   14   50 1
    54   14   51 1
    55   15   52 1
    56   15   53 1
    57   16   54 1
    58   16   55 1
    59   17   56 1
    60   17   57 1
    61   18   58 1
    62   18   59 1
    63   19   60 1
    64   19   61 1
    65   20   62 1
    66   21   63 1
    67   23   64 1
    68   23   65 1
    69   24   66 1
    70   24   67 1
    71   25   68 1
    72   25   69 1
    73   26   70 1
    74   26   71 1
    75   27   72 1
    76   27   73 1
    77   28   74 1
    78   31   75 1
    79   31   76 1
    80   32   77 1
    81   32   78 1
    82   33   79 1
    83   34   80 1
@<TRIPOS>MOLECULE
1a46_ligand_239
   80    83     0     0     0
SMALL
USER_CHARGES

mmff94s_NoEstat = 85.97
@<TRIPOS>ATOM
      1 C1         -5.9518    1.0529  -15.7574 C.ar      1 <0>        -0.1300
      2 C2         -4.7078    1.6646  -15.9115 C.ar      1 <0>        -0.1323
      3 C3         -6.6077    1.1063  -14.5275 C.ar      1 <0>        -0.1309
      4 C4         -4.1196    2.3297  -14.8357 C.ar      1 <0>        -0.1275
      5 C5         -6.0195    1.7714  -13.4517 C.ar      1 <0>        -0.1272
      6 C6         -4.7793    2.3787  -13.6128 C.ar      1 <0>        -0.0843
      7 C7         -2.6173    2.8751  -10.4447 C.2       1 <0>         0.6709
      8 C8          2.7796    3.2097   -6.1637 C.2       1 <0>         0.4867
      9 C9          3.9990    3.9872   -5.7623 C.2       1 <0>         0.5883
     10 C10        -0.0591    2.8141   -8.5012 C.2       1 <0>         0.6572
     11 C11         6.1993    6.6494   -1.6046 C.3       1 <0>        -0.0802
     12 C12         5.2719    7.4887   -2.4790 C.3       1 <0>        -0.0765
     13 C13         6.8406    5.5116   -2.3940 C.3       1 <0>        -0.0774
     14 C14         4.2203    6.6263   -3.1750 C.3       1 <0>        -0.0953
     15 C15         5.7906    4.6467   -3.0892 C.3       1 <0>        -0.0906
     16 C16        -1.5879    1.1654   -7.3921 C.3       1 <0>        -0.0871
     17 C17        -4.1019    0.9486  -11.1228 C.3       1 <0>        -0.0716
     18 C18        -1.5823    0.0424   -8.4274 C.3       1 <0>         0.1333
     19 C19        -3.5290    0.2485   -9.8784 C.3       1 <0>         0.1246
     20 C20        -1.4789    2.4202   -8.2321 C.3       1 <0>         0.0606
     21 C21         4.8692    5.4919   -3.9756 C.3       1 <0>         0.1012
     22 C22        -3.2673    2.1480  -11.6303 C.3       1 <0>         0.1554
     23 C23        -4.1466    3.0941  -12.4556 C.3       1 <0>        -0.0356
     24 C24         1.4445    5.5921   -8.9731 C.3       1 <0>        -0.0795
     25 C25         1.6370    7.0835   -9.2718 C.3       1 <0>        -0.1203
     26 C26         2.1570    5.1335   -7.6933 C.3       1 <0>        -0.0920
     27 C27         0.9502    7.5360  -10.5601 C.3       1 <0>         0.1502
     28 C28         2.0196    3.6328   -7.4097 C.3       1 <0>         0.0224
     29 N1         -2.0587    2.0261   -9.5019 N.am      1 <0>        -0.3553
     30 N2         -2.1349    0.6298   -9.6602 N.3       1 <0>        -0.4320
     31 N3         -2.1572    1.6877  -12.4773 N.3       1 <0>        -0.9031
     32 N4          1.1922    8.9569  -10.7874 N.3       1 <0>        -0.9068
     33 N5          3.8342    4.6454   -4.5659 N.am      1 <0>        -0.5526
     34 N6          0.6426    3.2153   -7.3763 N.am      1 <0>        -0.5576
     35 O1         -2.5899    4.1027  -10.3594 O.2       1 <0>        -0.6710
     36 O2          2.4233    2.3196   -5.4021 O.2       1 <0>        -0.4901
     37 O3          4.9593    3.9735   -6.5149 O.2       1 <0>        -0.5902
     38 O4          0.3766    2.7593   -9.6452 O.2       1 <0>        -0.5833
     39 H1         -6.4098    0.5350  -16.5951 H         1 <0>         0.1320
     40 H2         -4.1972    1.6230  -16.8692 H         1 <0>         0.1324
     41 H3         -7.5763    0.6298  -14.4076 H         1 <0>         0.1328
     42 H4         -3.1501    2.8034  -14.9651 H         1 <0>         0.1324
     43 H5         -6.5379    1.8077  -12.4972 H         1 <0>         0.1434
     44 H6          6.9807    7.2877   -1.1770 H         1 <0>         0.0405
     45 H7          5.6298    6.2338   -0.7642 H         1 <0>         0.0421
     46 H8          4.7769    8.2503   -1.8660 H         1 <0>         0.0362
     47 H9          5.8638    8.0208   -3.2338 H         1 <0>         0.0439
     48 H10         7.5250    5.9270   -3.1439 H         1 <0>         0.0350
     49 H11         7.4428    4.8904   -1.7214 H         1 <0>         0.0428
     50 H12         3.5345    6.2114   -2.4245 H         1 <0>         0.0663
     51 H13         3.6115    7.2524   -3.8385 H         1 <0>         0.0466
     52 H14         6.2885    3.8778   -3.6925 H         1 <0>         0.0493
     53 H15         5.1989    4.1136   -2.3334 H         1 <0>         0.0520
     54 H16        -2.5475    1.1615   -6.8606 H         1 <0>         0.0915
     55 H17        -0.7842    1.0569   -6.6575 H         1 <0>         0.0601
     56 H18        -4.2204    0.2148  -11.9317 H         1 <0>         0.0688
     57 H19        -5.1178    1.2870  -10.8778 H         1 <0>         0.0630
     58 H20        -0.5477   -0.2605   -8.6286 H         1 <0>         0.0807
     59 H21        -2.1179   -0.8467   -8.0766 H         1 <0>         0.0380
     60 H22        -4.1468    0.5063   -9.0071 H         1 <0>         0.0484
     61 H23        -3.6100   -0.8367  -10.0142 H         1 <0>         0.0697
     62 H24        -2.0054    3.2790   -7.8063 H         1 <0>         0.0843
     63 H25         5.4402    5.9086   -4.8133 H         1 <0>         0.0831
     64 H26        -3.5359    3.9262  -12.8108 H         1 <0>         0.0704
     65 H27        -4.9137    3.5213  -11.8072 H         1 <0>         0.0718
     66 H28         0.3683    5.4079   -8.8774 H         1 <0>         0.0606
     67 H29         1.7918    5.0040   -9.8306 H         1 <0>         0.0458
     68 H30         1.2300    7.6523   -8.4256 H         1 <0>         0.0375
     69 H31         2.7093    7.3123   -9.3176 H         1 <0>         0.0392
     70 H32         1.7604    5.7005   -6.8419 H         1 <0>         0.0606
     71 H33         3.2243    5.3739   -7.7660 H         1 <0>         0.0579
     72 H34        -0.1287    7.3572  -10.4981 H         1 <0>         0.0571
     73 H35         1.3345    6.9786  -11.4193 H         1 <0>         0.0503
     74 H36         2.4714    3.0747   -8.2388 H         1 <0>         0.0993
     75 H37        -1.7180    0.8294  -12.2371 H         1 <0>         0.3700
     76 H38        -1.7642    2.3382  -13.1175 H         1 <0>         0.3660
     77 H39         0.7014    9.4044  -11.5317 H         1 <0>         0.3465
     78 H40         1.9755    9.3785  -10.3359 H         1 <0>         0.3446
     79 H41         2.9540    4.5384   -4.0705 H         1 <0>         0.3148
     80 H42         0.1596    3.2148   -6.4798 H         1 <0>         0.3220
@<TRIPOS>BOND
     1    1    2 ar
     2    1    3 ar
     3    2    4 ar
     4    3    5 ar
     5    4    6 ar
     6    5    6 ar
     7    6   23 1
     8    7   22 1
     9    7   29 am
    10    7   35 2
    11    8    9 1
    12    8   28 1
    13    8   36 2
    14    9   33 am
    15    9   37 2
    16   10   20 1
    17   10   34 am
    18   10   38 2
    19   11   12 1
    20   11   13 1
    21   12   14 1
    22   13   15 1
    23   14   21 1
    24   15   21 1
    25   16   18 1
    26   16   20 1
    27   17   19 1
    28   17   22 1
    29   18   30 1
    30   19   30 1
    31   20   29 1
    32   21   33 1
    33   22   23 1
    34   22   31 1
    35   24   25 1
    36   24   26 1
    37   25   27 1
    38   26   28 1
    39   27   32 1
    40   28   34 1
    41   29   30 1
    42    1   39 1
    43    2   40 1
    44    3   41 1
    45    4   42 1
    46    5   43 1
    47   11   44 1
    48   11   45 1
    49   12   46 1
    50   12   47 1
    51   13   48 1
    52   13   49 1
    53   14   50 1
    54   14   51 1
    55   15   52 1
    56   15   53 1
    57   16   54 1
    58   16   55 1
    59   17   56 1
    60   17   57 1
    61   18   58 1
    62   18   59 1
    63   19   60 1
    64   19   61 1
    65   20   62 1
    66   21   63 1
    67   23   64 1
    68   23   65 1
    69   24   66 1
    70   24   67 1
    71   25   68 1
    72   25   69 1
    73   26   70 1
    74   26   71 1
    75   27   72 1
    76   27   73 1
    77   28   74 1
    78   31   75 1
    79   31   76 1
    80   32   77 1
    81   32   78 1
    82   33   79 1
    83   34   80 1
@<TRIPOS>MOLECULE
1a46_ligand_240
   80    83     0     0     0
SMALL
USER_CHARGES

mmff94s_NoEstat = 86.04
@<TRIPOS>ATOM
      1 C1         -4.4072   -3.0319  -14.4211 C.ar      1 <0>        -0.1300
      2 C2         -3.1014   -2.5683  -14.5810 C.ar      1 <0>        -0.1323
      3 C3         -5.2666   -2.3997  -13.5224 C.ar      1 <0>        -0.1309
      4 C4         -2.6549   -1.4727  -13.8421 C.ar      1 <0>        -0.1275
      5 C5         -4.8200   -1.3041  -12.7835 C.ar      1 <0>        -0.1272
      6 C6         -3.5171   -0.8478  -12.9482 C.ar      1 <0>        -0.0843
      7 C7         -1.9267    1.0916  -10.0042 C.2       1 <0>         0.6709
      8 C8          2.7796    3.2097   -6.1637 C.2       1 <0>         0.4867
      9 C9          4.2189    2.8058   -6.2975 C.2       1 <0>         0.5883
     10 C10         0.2181    1.9581   -7.7739 C.2       1 <0>         0.6572
     11 C11         8.7390    2.1665   -3.4036 C.3       1 <0>        -0.0802
     12 C12         8.5586    3.0794   -4.6132 C.3       1 <0>        -0.0765
     13 C13         7.8654    0.9193   -3.5041 C.3       1 <0>        -0.0774
     14 C14         7.0903    3.4392   -4.8337 C.3       1 <0>        -0.0953
     15 C15         6.3962    1.2768   -3.7226 C.3       1 <0>        -0.0906
     16 C16        -1.6423    1.0361   -6.3687 C.3       1 <0>        -0.0871
     17 C17        -3.4475   -0.9240   -9.9997 C.3       1 <0>        -0.0716
     18 C18        -1.5606   -0.4439   -6.7372 C.3       1 <0>         0.1333
     19 C19        -3.1819   -0.9495   -8.4846 C.3       1 <0>         0.1246
     20 C20        -1.2590    1.7411   -7.6524 C.3       1 <0>         0.0606
     21 C21         6.2184    2.1837   -4.9453 C.3       1 <0>         0.1012
     22 C22        -2.4199   -0.1108  -10.8216 C.3       1 <0>         0.1554
     23 C23        -3.0368    0.3307  -12.1535 C.3       1 <0>        -0.0356
     24 C24         3.6080    5.6033   -7.8654 C.3       1 <0>        -0.0795
     25 C25         3.7321    7.1143   -8.0937 C.3       1 <0>        -0.1203
     26 C26         2.1570    5.1335   -7.6933 C.3       1 <0>        -0.0920
     27 C27         5.1782    7.5875   -8.2387 C.3       1 <0>         0.1502
     28 C28         2.0196    3.6328   -7.4097 C.3       1 <0>         0.0224
     29 N1         -1.6352    0.7917   -8.6825 N.am      1 <0>        -0.3553
     30 N2         -1.8196   -0.5121   -8.1858 N.3       1 <0>        -0.4320
     31 N3         -1.2259   -0.9195  -11.1076 N.3       1 <0>        -0.9031
     32 N4          5.2178    9.0330   -8.4337 N.3       1 <0>        -0.9068
     33 N5          4.8139    2.5648   -5.0811 N.am      1 <0>        -0.5526
     34 N6          0.6426    3.2153   -7.3763 N.am      1 <0>        -0.5576
     35 O1         -1.7935    2.2123  -10.4955 O.2       1 <0>        -0.6710
     36 O2          2.3266    3.2509   -5.0269 O.2       1 <0>        -0.4901
     37 O3          4.6970    2.7561   -7.4190 O.2       1 <0>        -0.5902
     38 O4          0.9290    1.0536   -8.1959 O.2       1 <0>        -0.5833
     39 H1         -4.7549   -3.8850  -14.9963 H         1 <0>         0.1320
     40 H2         -2.4324   -3.0606  -15.2808 H         1 <0>         0.1324
     41 H3         -6.2832   -2.7609  -13.3979 H         1 <0>         0.1328
     42 H4         -1.6358   -1.1186  -13.9733 H         1 <0>         0.1324
     43 H5         -5.4966   -0.8180  -12.0857 H         1 <0>         0.1434
     44 H6          9.7913    1.8735   -3.3164 H         1 <0>         0.0405
     45 H7          8.4833    2.7176   -2.4903 H         1 <0>         0.0421
     46 H8          9.1455    3.9945   -4.4750 H         1 <0>         0.0362
     47 H9          8.9496    2.5810   -5.5087 H         1 <0>         0.0439
     48 H10         8.2153    0.2934   -4.3342 H         1 <0>         0.0350
     49 H11         7.9674    0.3236   -2.5899 H         1 <0>         0.0428
     50 H12         6.7403    4.0666   -4.0033 H         1 <0>         0.0663
     51 H13         6.9925    4.0452   -5.7427 H         1 <0>         0.0466
     52 H14         5.8092    0.3589   -3.8487 H         1 <0>         0.0493
     53 H15         6.0049    1.7750   -2.8258 H         1 <0>         0.0520
     54 H16        -2.6779    1.2865   -6.1074 H         1 <0>         0.0915
     55 H17        -0.9998    1.2887   -5.5196 H         1 <0>         0.0601
     56 H18        -3.4897   -1.9539  -10.3797 H         1 <0>         0.0688
     57 H19        -4.4523   -0.5086  -10.1558 H         1 <0>         0.0630
     58 H20        -0.5419   -0.8072   -6.5560 H         1 <0>         0.0807
     59 H21        -2.2364   -1.0589   -6.1327 H         1 <0>         0.0380
     60 H22        -3.9187   -0.3080   -7.9817 H         1 <0>         0.0484
     61 H23        -3.3442   -1.9688   -8.1140 H         1 <0>         0.0697
     62 H24        -1.7661    2.6997   -7.7936 H         1 <0>         0.0843
     63 H25         6.4768    1.6324   -5.8568 H         1 <0>         0.0831
     64 H26        -2.2923    0.8934  -12.7197 H         1 <0>         0.0704
     65 H27        -3.8625    1.0157  -11.9521 H         1 <0>         0.0718
     66 H28         4.0550    5.0981   -8.7294 H         1 <0>         0.0606
     67 H29         4.2035    5.3200   -6.9896 H         1 <0>         0.0458
     68 H30         3.1762    7.3642   -9.0068 H         1 <0>         0.0375
     69 H31         3.2423    7.6502   -7.2709 H         1 <0>         0.0392
     70 H32         1.5916    5.3838   -8.5996 H         1 <0>         0.0606
     71 H33         1.6928    5.6841   -6.8667 H         1 <0>         0.0579
     72 H34         5.6557    7.0931   -9.0916 H         1 <0>         0.0571
     73 H35         5.7562    7.3441   -7.3424 H         1 <0>         0.0503
     74 H36         2.4714    3.0747   -8.2388 H         1 <0>         0.0993
     75 H37        -0.9249   -1.5612  -10.4112 H         1 <0>         0.3700
     76 H38        -0.6609   -0.6518  -11.8799 H         1 <0>         0.3660
     77 H39         6.0938    9.4532   -8.6597 H         1 <0>         0.3465
     78 H40         4.4297    9.5689   -8.1390 H         1 <0>         0.3446
     79 H41         4.2523    2.6558   -4.2398 H         1 <0>         0.3148
     80 H42        -0.0552    3.8781   -7.0434 H         1 <0>         0.3220
@<TRIPOS>BOND
     1    1    2 ar
     2    1    3 ar
     3    2    4 ar
     4    3    5 ar
     5    4    6 ar
     6    5    6 ar
     7    6   23 1
     8    7   22 1
     9    7   29 am
    10    7   35 2
    11    8    9 1
    12    8   28 1
    13    8   36 2
    14    9   33 am
    15    9   37 2
    16   10   20 1
    17   10   34 am
    18   10   38 2
    19   11   12 1
    20   11   13 1
    21   12   14 1
    22   13   15 1
    23   14   21 1
    24   15   21 1
    25   16   18 1
    26   16   20 1
    27   17   19 1
    28   17   22 1
    29   18   30 1
    30   19   30 1
    31   20   29 1
    32   21   33 1
    33   22   23 1
    34   22   31 1
    35   24   25 1
    36   24   26 1
    37   25   27 1
    38   26   28 1
    39   27   32 1
    40   28   34 1
    41   29   30 1
    42    1   39 1
    43    2   40 1
    44    3   41 1
    45    4   42 1
    46    5   43 1
    47   11   44 1
    48   11   45 1
    49   12   46 1
    50   12   47 1
    51   13   48 1
    52   13   49 1
    53   14   50 1
    54   14   51 1
    55   15   52 1
    56   15   53 1
    57   16   54 1
    58   16   55 1
    59   17   56 1
    60   17   57 1
    61   18   58 1
    62   18   59 1
    63   19   60 1
    64   19   61 1
    65   20   62 1
    66   21   63 1
    67   23   64 1
    68   23   65 1
    69   24   66 1
    70   24   67 1
    71   25   68 1
    72   25   69 1
    73   26   70 1
    74   26   71 1
    75   27   72 1
    76   27   73 1
    77   28   74 1
    78   31   75 1
    79   31   76 1
    80   32   77 1
    81   32   78 1
    82   33   79 1
    83   34   80 1
@<TRIPOS>MOLECULE
1a46_ligand_241
   80    83     0     0     0
SMALL
USER_CHARGES

mmff94s_NoEstat = 86.13
@<TRIPOS>ATOM
      1 C1          5.9504   -1.3642  -10.1903 C.ar      1 <0>        -0.1300
      2 C2          6.6765   -1.8241   -9.0918 C.ar      1 <0>        -0.1323
      3 C3          5.5463   -0.0305  -10.2504 C.ar      1 <0>        -0.1309
      4 C4          6.9984   -0.9504   -8.0532 C.ar      1 <0>        -0.1275
      5 C5          5.8681    0.8432   -9.2119 C.ar      1 <0>        -0.1272
      6 C6          6.5921    0.3776   -8.1201 C.ar      1 <0>        -0.0843
      7 C7          6.1974    2.2868   -4.7798 C.2       1 <0>         0.6709
      8 C8          5.2358    2.3798    1.5634 C.2       1 <0>         0.4867
      9 C9          4.9672    2.8271    2.9706 C.2       1 <0>         0.5883
     10 C10         5.7098    2.8119   -1.6475 C.2       1 <0>         0.6572
     11 C11         0.2716    3.3826    4.3985 C.3       1 <0>        -0.0802
     12 C12         0.8842    4.4980    3.5555 C.3       1 <0>        -0.0765
     13 C13         1.2566    2.2409    4.6351 C.3       1 <0>        -0.0774
     14 C14         2.1995    4.9981    4.1541 C.3       1 <0>        -0.0953
     15 C15         2.5710    2.7464    5.2316 C.3       1 <0>        -0.0906
     16 C16         3.6723    3.8570   -2.6681 C.3       1 <0>        -0.0871
     17 C17         4.4858    1.7161   -6.5463 C.3       1 <0>        -0.0716
     18 C18         2.9535    2.6133   -3.1875 C.3       1 <0>         0.1333
     19 C19         3.4659    2.2898   -5.5476 C.3       1 <0>         0.1246
     20 C20         5.1372    3.5153   -2.8394 C.3       1 <0>         0.0606
     21 C21         3.2085    3.8688    4.4019 C.3       1 <0>         0.1012
     22 C22         5.8481    1.3265   -5.9256 C.3       1 <0>         0.1554
     23 C23         6.9383    1.3175   -7.0029 C.3       1 <0>        -0.0356
     24 C24         8.0800    4.9598    0.7851 C.3       1 <0>        -0.0795
     25 C25         8.7880    6.0338    1.6192 C.3       1 <0>        -0.1203
     26 C26         6.9719    4.2276    1.5544 C.3       1 <0>        -0.0920
     27 C27         9.9095    6.7454    0.8629 C.3       1 <0>         0.1502
     28 C28         6.2906    3.1130    0.7514 C.3       1 <0>         0.0224
     29 N1          5.1345    2.5635   -3.9339 N.am      1 <0>        -0.3553
     30 N2          3.8653    2.0037   -4.1710 N.3       1 <0>        -0.4320
     31 N3          5.7803   -0.0123   -5.3216 N.3       1 <0>        -0.9031
     32 N4         10.5470    7.7366    1.7233 N.3       1 <0>        -0.9068
     33 N5          3.7009    3.3404    3.1278 N.am      1 <0>        -0.5526
     34 N6          5.7762    3.5917   -0.5046 N.am      1 <0>        -0.5576
     35 O1          7.3278    2.7504   -4.6301 O.2       1 <0>        -0.6710
     36 O2          4.5176    1.4899    1.1258 O.2       1 <0>        -0.4901
     37 O3          5.8662    2.7146    3.7879 O.2       1 <0>        -0.5902
     38 O4          6.0670    1.6440   -1.7490 O.2       1 <0>        -0.5833
     39 H1          5.6997   -2.0446  -10.9989 H         1 <0>         0.1320
     40 H2          6.9911   -2.8626   -9.0451 H         1 <0>         0.1324
     41 H3          4.9808    0.3274  -11.1059 H         1 <0>         0.1328
     42 H4          7.5644   -1.3176   -7.2012 H         1 <0>         0.1324
     43 H5          5.5489    1.8806   -9.2673 H         1 <0>         0.1434
     44 H6         -0.0473    3.7924    5.3649 H         1 <0>         0.0405
     45 H7         -0.6275    2.9978    3.9040 H         1 <0>         0.0421
     46 H8          1.0557    4.1332    2.5355 H         1 <0>         0.0362
     47 H9          0.1762    5.3312    3.4787 H         1 <0>         0.0439
     48 H10         0.8079    1.5026    5.3094 H         1 <0>         0.0350
     49 H11         1.4534    1.7257    3.6873 H         1 <0>         0.0428
     50 H12         2.6344    5.7530    3.4879 H         1 <0>         0.0663
     51 H13         1.9865    5.4999    5.1066 H         1 <0>         0.0466
     52 H14         2.3793    3.1187    6.2461 H         1 <0>         0.0493
     53 H15         3.2690    1.9060    5.3283 H         1 <0>         0.0520
     54 H16         3.4181    4.7133   -3.3051 H         1 <0>         0.0915
     55 H17         3.3944    4.0971   -1.6373 H         1 <0>         0.0601
     56 H18         4.0497    0.8441   -7.0524 H         1 <0>         0.0688
     57 H19         4.6431    2.4675   -7.3320 H         1 <0>         0.0630
     58 H20         2.8170    1.9026   -2.3635 H         1 <0>         0.0807
     59 H21         1.9588    2.8453   -3.5837 H         1 <0>         0.0380
     60 H22         3.3744    3.3723   -5.7123 H         1 <0>         0.0484
     61 H23         2.4818    1.8533   -5.7569 H         1 <0>         0.0697
     62 H24         5.7646    4.3810   -3.0694 H         1 <0>         0.0843
     63 H25         4.0871    4.2632    4.9231 H         1 <0>         0.0831
     64 H26         7.8868    1.0311   -6.5450 H         1 <0>         0.0704
     65 H27         7.0672    2.3317   -7.3854 H         1 <0>         0.0718
     66 H28         7.6494    5.4516   -0.0948 H         1 <0>         0.0606
     67 H29         8.8216    4.2418    0.4157 H         1 <0>         0.0458
     68 H30         8.0356    6.7709    1.9287 H         1 <0>         0.0375
     69 H31         9.1825    5.5824    2.5383 H         1 <0>         0.0392
     70 H32         6.2171    4.9575    1.8728 H         1 <0>         0.0606
     71 H33         7.3929    3.7874    2.4660 H         1 <0>         0.0579
     72 H34         9.5108    7.2416   -0.0285 H         1 <0>         0.0571
     73 H35        10.6706    6.0303    0.5375 H         1 <0>         0.0503
     74 H36         7.0421    2.3587    0.4881 H         1 <0>         0.0993
     75 H37         4.9287   -0.2795   -4.8849 H         1 <0>         0.3700
     76 H38         6.6336   -0.5056   -5.1950 H         1 <0>         0.3660
     77 H39        11.2163    8.3531    1.3147 H         1 <0>         0.3465
     78 H40        10.4498    7.6340    2.7108 H         1 <0>         0.3446
     79 H41         3.0795    3.3535    2.3245 H         1 <0>         0.3148
     80 H42         5.4441    4.5531   -0.5557 H         1 <0>         0.3220
@<TRIPOS>BOND
     1    1    2 ar
     2    1    3 ar
     3    2    4 ar
     4    3    5 ar
     5    4    6 ar
     6    5    6 ar
     7    6   23 1
     8    7   22 1
     9    7   29 am
    10    7   35 2
    11    8    9 1
    12    8   28 1
    13    8   36 2
    14    9   33 am
    15    9   37 2
    16   10   20 1
    17   10   34 am
    18   10   38 2
    19   11   12 1
    20   11   13 1
    21   12   14 1
    22   13   15 1
    23   14   21 1
    24   15   21 1
    25   16   18 1
    26   16   20 1
    27   17   19 1
    28   17   22 1
    29   18   30 1
    30   19   30 1
    31   20   29 1
    32   21   33 1
    33   22   23 1
    34   22   31 1
    35   24   25 1
    36   24   26 1
    37   25   27 1
    38   26   28 1
    39   27   32 1
    40   28   34 1
    41   29   30 1
    42    1   39 1
    43    2   40 1
    44    3   41 1
    45    4   42 1
    46    5   43 1
    47   11   44 1
    48   11   45 1
    49   12   46 1
    50   12   47 1
    51   13   48 1
    52   13   49 1
    53   14   50 1
    54   14   51 1
    55   15   52 1
    56   15   53 1
    57   16   54 1
    58   16   55 1
    59   17   56 1
    60   17   57 1
    61   18   58 1
    62   18   59 1
    63   19   60 1
    64   19   61 1
    65   20   62 1
    66   21   63 1
    67   23   64 1
    68   23   65 1
    69   24   66 1
    70   24   67 1
    71   25   68 1
    72   25   69 1
    73   26   70 1
    74   26   71 1
    75   27   72 1
    76   27   73 1
    77   28   74 1
    78   31   75 1
    79   31   76 1
    80   32   77 1
    81   32   78 1
    82   33   79 1
    83   34   80 1
@<TRIPOS>MOLECULE
1a46_ligand_242
   80    83     0     0     0
SMALL
USER_CHARGES

mmff94s_NoEstat = 86.14
@<TRIPOS>ATOM
      1 C1         -5.0984    1.0095  -15.6042 C.ar      1 <0>        -0.1300
      2 C2         -3.7796    1.4634  -15.6236 C.ar      1 <0>        -0.1323
      3 C3         -5.8613    1.1325  -14.4430 C.ar      1 <0>        -0.1309
      4 C4         -3.2237    2.0403  -14.4818 C.ar      1 <0>        -0.1275
      5 C5         -5.3054    1.7094  -13.3011 C.ar      1 <0>        -0.1272
      6 C6         -3.9903    2.1595  -13.3280 C.ar      1 <0>        -0.0843
      7 C7         -2.1082    2.3543   -9.9549 C.2       1 <0>         0.6709
      8 C8          2.7796    3.2097   -6.1637 C.2       1 <0>         0.4867
      9 C9          2.0233    2.5606   -5.0416 C.2       1 <0>         0.5883
     10 C10         0.2181    1.9581   -7.7739 C.2       1 <0>         0.6572
     11 C11         0.4928    3.3165    0.0869 C.3       1 <0>        -0.0802
     12 C12         1.8763    2.6943   -0.0795 C.3       1 <0>        -0.0765
     13 C13        -0.4186    2.9867   -1.0919 C.3       1 <0>        -0.0774
     14 C14         2.5152    3.0886   -1.4101 C.3       1 <0>        -0.0953
     15 C15         0.2175    3.3821   -2.4235 C.3       1 <0>        -0.0906
     16 C16        -1.6037    0.5018   -6.8541 C.3       1 <0>        -0.0871
     17 C17        -3.7434    0.6334  -10.8151 C.3       1 <0>        -0.0716
     18 C18        -1.6334   -0.6036   -7.9078 C.3       1 <0>         0.1333
     19 C19        -3.3867   -0.1439   -9.5363 C.3       1 <0>         0.1246
     20 C20        -1.2590    1.7411   -7.6524 C.3       1 <0>         0.0606
     21 C21         1.6014    2.7453   -2.5917 C.3       1 <0>         0.1012
     22 C22        -2.7218    1.7245  -11.2134 C.3       1 <0>         0.1554
     23 C23        -3.3923    2.7801  -12.0997 C.3       1 <0>        -0.0356
     24 C24         1.5857    6.0302   -6.5865 C.3       1 <0>        -0.0795
     25 C25         1.6811    7.5259   -6.9095 C.3       1 <0>        -0.1203
     26 C26         2.1570    5.1335   -7.6933 C.3       1 <0>        -0.0920
     27 C27         1.0885    8.4192   -5.8200 C.3       1 <0>         0.1502
     28 C28         2.0196    3.6328   -7.4097 C.3       1 <0>         0.0224
     29 N1         -1.7541    1.4338   -8.9807 N.am      1 <0>        -0.3553
     30 N2         -1.9849    0.0592   -9.1756 N.3       1 <0>        -0.4320
     31 N3         -1.5982    1.1378  -11.9581 N.3       1 <0>        -0.9031
     32 N4          1.8018    8.2205   -4.5627 N.3       1 <0>        -0.9068
     33 N5          2.2102    3.2024   -3.8395 N.am      1 <0>        -0.5526
     34 N6          0.6426    3.2153   -7.3763 N.am      1 <0>        -0.5576
     35 O1         -1.9389    3.5681   -9.8411 O.2       1 <0>        -0.6710
     36 O2          3.9949    3.2835   -6.0334 O.2       1 <0>        -0.4901
     37 O3          1.3678    1.5632   -5.2954 O.2       1 <0>        -0.5902
     38 O4          0.9290    1.0536   -8.1959 O.2       1 <0>        -0.5833
     39 H1         -5.5312    0.5602  -16.4933 H         1 <0>         0.1320
     40 H2         -3.1856    1.3675  -16.5278 H         1 <0>         0.1324
     41 H3         -6.8881    0.7789  -14.4280 H         1 <0>         0.1328
     42 H4         -2.1954    2.3911  -14.5062 H         1 <0>         0.1324
     43 H5         -5.9074    1.8011  -12.4009 H         1 <0>         0.1434
     44 H6          0.0368    2.9585    1.0168 H         1 <0>         0.0405
     45 H7          0.5918    4.4053    0.1772 H         1 <0>         0.0421
     46 H8          2.5234    3.0081    0.7472 H         1 <0>         0.0362
     47 H9          1.7946    1.6018   -0.0247 H         1 <0>         0.0439
     48 H10        -0.6357    1.9115   -1.0969 H         1 <0>         0.0350
     49 H11        -1.3767    3.5054   -0.9731 H         1 <0>         0.0428
     50 H12         2.7335    4.1647   -1.4047 H         1 <0>         0.0663
     51 H13         3.4791    2.5773   -1.5212 H         1 <0>         0.0466
     52 H14        -0.4376    3.0776   -3.2487 H         1 <0>         0.0493
     53 H15         0.2984    4.4757   -2.4784 H         1 <0>         0.0520
     54 H16        -2.6044    0.6122   -6.4185 H         1 <0>         0.0915
     55 H17        -0.8961    0.2875   -6.0474 H         1 <0>         0.0601
     56 H18        -3.8703   -0.0725  -11.6472 H         1 <0>         0.0688
     57 H19        -4.7294    1.0931  -10.6627 H         1 <0>         0.0630
     58 H20        -0.6289   -1.0307   -8.0140 H         1 <0>         0.0807
     59 H21        -2.3061   -1.4224   -7.6298 H         1 <0>         0.0380
     60 H22        -4.0515    0.1805   -8.7237 H         1 <0>         0.0484
     61 H23        -3.5864   -1.2093   -9.7025 H         1 <0>         0.0697
     62 H24        -1.7157    2.6547   -7.2615 H         1 <0>         0.0843
     63 H25         1.5010    1.6573   -2.6792 H         1 <0>         0.0831
     64 H26        -2.6520    3.5331  -12.3759 H         1 <0>         0.0704
     65 H27        -4.1617    3.2932  -11.5198 H         1 <0>         0.0718
     66 H28         2.1358    5.8550   -5.6547 H         1 <0>         0.0606
     67 H29         0.5392    5.7688   -6.3906 H         1 <0>         0.0458
     68 H30         2.7419    7.7748   -7.0444 H         1 <0>         0.0375
     69 H31         1.1870    7.7255   -7.8687 H         1 <0>         0.0392
     70 H32         3.2164    5.3787   -7.8393 H         1 <0>         0.0606
     71 H33         1.6466    5.3535   -8.6384 H         1 <0>         0.0579
     72 H34         0.0275    8.1885   -5.6755 H         1 <0>         0.0571
     73 H35         1.1682    9.4739   -6.0992 H         1 <0>         0.0503
     74 H36         2.4714    3.0747   -8.2388 H         1 <0>         0.0993
     75 H37        -1.2936    0.2294  -11.6949 H         1 <0>         0.3700
     76 H38        -1.0669    1.7403  -12.5430 H         1 <0>         0.3660
     77 H39         1.4387    8.6562   -3.7421 H         1 <0>         0.3465
     78 H40         2.7216    7.8360   -4.5996 H         1 <0>         0.3446
     79 H41         2.7974    4.0308   -3.8179 H         1 <0>         0.3148
     80 H42        -0.0552    3.8781   -7.0434 H         1 <0>         0.3220
@<TRIPOS>BOND
     1    1    2 ar
     2    1    3 ar
     3    2    4 ar
     4    3    5 ar
     5    4    6 ar
     6    5    6 ar
     7    6   23 1
     8    7   22 1
     9    7   29 am
    10    7   35 2
    11    8    9 1
    12    8   28 1
    13    8   36 2
    14    9   33 am
    15    9   37 2
    16   10   20 1
    17   10   34 am
    18   10   38 2
    19   11   12 1
    20   11   13 1
    21   12   14 1
    22   13   15 1
    23   14   21 1
    24   15   21 1
    25   16   18 1
    26   16   20 1
    27   17   19 1
    28   17   22 1
    29   18   30 1
    30   19   30 1
    31   20   29 1
    32   21   33 1
    33   22   23 1
    34   22   31 1
    35   24   25 1
    36   24   26 1
    37   25   27 1
    38   26   28 1
    39   27   32 1
    40   28   34 1
    41   29   30 1
    42    1   39 1
    43    2   40 1
    44    3   41 1
    45    4   42 1
    46    5   43 1
    47   11   44 1
    48   11   45 1
    49   12   46 1
    50   12   47 1
    51   13   48 1
    52   13   49 1
    53   14   50 1
    54   14   51 1
    55   15   52 1
    56   15   53 1
    57   16   54 1
    58   16   55 1
    59   17   56 1
    60   17   57 1
    61   18   58 1
    62   18   59 1
    63   19   60 1
    64   19   61 1
    65   20   62 1
    66   21   63 1
    67   23   64 1
    68   23   65 1
    69   24   66 1
    70   24   67 1
    71   25   68 1
    72   25   69 1
    73   26   70 1
    74   26   71 1
    75   27   72 1
    76   27   73 1
    77   28   74 1
    78   31   75 1
    79   31   76 1
    80   32   77 1
    81   32   78 1
    82   33   79 1
    83   34   80 1
@<TRIPOS>MOLECULE
1a46_ligand_243
   80    83     0     0     0
SMALL
USER_CHARGES

mmff94s_NoEstat = 86.16
@<TRIPOS>ATOM
      1 C1         -7.1732    5.1663  -14.6915 C.ar      1 <0>        -0.1300
      2 C2         -5.9354    5.8086  -14.7170 C.ar      1 <0>        -0.1323
      3 C3         -7.6444    4.6069  -13.5037 C.ar      1 <0>        -0.1309
      4 C4         -5.1685    5.8915  -13.5548 C.ar      1 <0>        -0.1275
      5 C5         -6.8775    4.6898  -12.3415 C.ar      1 <0>        -0.1272
      6 C6         -5.6446    5.3316  -12.3746 C.ar      1 <0>        -0.0843
      7 C7         -3.0329    4.3040   -9.7137 C.2       1 <0>         0.6709
      8 C8          2.7796    3.2097   -6.1637 C.2       1 <0>         0.4867
      9 C9          2.0233    2.5606   -5.0416 C.2       1 <0>         0.5883
     10 C10        -0.2306    3.3845   -8.4382 C.2       1 <0>         0.6572
     11 C11        -0.6002    3.4030   -0.5260 C.3       1 <0>        -0.0802
     12 C12        -1.4741    3.8443   -1.6967 C.3       1 <0>        -0.0765
     13 C13         0.3224    2.2512   -0.9147 C.3       1 <0>        -0.0774
     14 C14        -0.6360    4.1879   -2.9269 C.3       1 <0>        -0.0953
     15 C15         1.1624    2.5924   -2.1444 C.3       1 <0>        -0.0906
     16 C16        -1.6648    1.3674   -8.0386 C.3       1 <0>        -0.0871
     17 C17        -4.6909    2.9009  -11.0011 C.3       1 <0>        -0.0716
     18 C18        -1.8612    0.8785   -9.4723 C.3       1 <0>         0.1333
     19 C19        -3.9819    1.7050  -10.3424 C.3       1 <0>         0.1246
     20 C20        -1.6152    2.8736   -8.1831 C.3       1 <0>         0.0606
     21 C21         0.2802    3.0242   -3.3210 C.3       1 <0>         0.1012
     22 C22        -3.8794    4.2177  -10.9915 C.3       1 <0>         0.1554
     23 C23        -4.8198    5.4208  -11.1245 C.3       1 <0>        -0.0356
     24 C24         1.5857    6.0302   -6.5865 C.3       1 <0>        -0.0795
     25 C25         1.6811    7.5259   -6.9095 C.3       1 <0>        -0.1203
     26 C26         2.1570    5.1335   -7.6933 C.3       1 <0>        -0.0920
     27 C27         1.0885    8.4192   -5.8200 C.3       1 <0>         0.1502
     28 C28         2.0196    3.6328   -7.4097 C.3       1 <0>         0.0224
     29 N1         -2.3880    3.1216   -9.3852 N.am      1 <0>        -0.3553
     30 N2         -2.5540    1.9705  -10.1777 N.3       1 <0>        -0.4320
     31 N3         -2.9247    4.2482  -12.1092 N.3       1 <0>        -0.9031
     32 N4          1.1980    9.8225   -6.2046 N.3       1 <0>        -0.9068
     33 N5          1.1182    3.4132   -4.4536 N.am      1 <0>        -0.5526
     34 N6          0.6426    3.2153   -7.3763 N.am      1 <0>        -0.5576
     35 O1         -2.9337    5.3408   -9.0578 O.2       1 <0>        -0.6710
     36 O2          3.9949    3.2835   -6.0334 O.2       1 <0>        -0.4901
     37 O3          2.2923    1.4031   -4.7649 O.2       1 <0>        -0.5902
     38 O4          0.0350    3.8958   -9.5198 O.2       1 <0>        -0.5833
     39 H1         -7.7703    5.1016  -15.5965 H         1 <0>         0.1320
     40 H2         -5.5686    6.2441  -15.6419 H         1 <0>         0.1324
     41 H3         -8.6082    4.1066  -13.4840 H         1 <0>         0.1328
     42 H4         -4.2053    6.3939  -13.5842 H         1 <0>         0.1324
     43 H5         -7.2527    4.2510  -11.4207 H         1 <0>         0.1434
     44 H6          0.0027    4.2522   -0.1811 H         1 <0>         0.0405
     45 H7         -1.2351    3.0994    0.3141 H         1 <0>         0.0421
     46 H8         -2.1793    3.0426   -1.9485 H         1 <0>         0.0362
     47 H9         -2.0713    4.7149   -1.4031 H         1 <0>         0.0439
     48 H10         0.9819    2.0071   -0.0742 H         1 <0>         0.0350
     49 H11        -0.2778    1.3564   -1.1206 H         1 <0>         0.0428
     50 H12        -1.2980    4.4441   -3.7629 H         1 <0>         0.0663
     51 H13        -0.0362    5.0841   -2.7207 H         1 <0>         0.0466
     52 H14         1.8693    3.3938   -1.8921 H         1 <0>         0.0493
     53 H15         1.7674    1.7230   -2.4287 H         1 <0>         0.0520
     54 H16        -2.5383    1.0847   -7.4380 H         1 <0>         0.0915
     55 H17        -0.7712    0.9407   -7.5731 H         1 <0>         0.0601
     56 H18        -4.9589    2.6417  -12.0345 H         1 <0>         0.0688
     57 H19        -5.6440    3.0543  -10.4769 H         1 <0>         0.0630
     58 H20        -0.8817    0.7357   -9.9443 H         1 <0>         0.0807
     59 H21        -2.3843   -0.0833   -9.5137 H         1 <0>         0.0380
     60 H22        -4.4563    1.4977   -9.3732 H         1 <0>         0.0484
     61 H23        -4.1342    0.8159  -10.9661 H         1 <0>         0.0697
     62 H24        -2.0334    3.4095   -7.3263 H         1 <0>         0.0843
     63 H25        -0.3238    2.1758   -3.6627 H         1 <0>         0.0831
     64 H26        -4.2259    6.3366  -11.1252 H         1 <0>         0.0704
     65 H27        -5.4653    5.4651  -10.2453 H         1 <0>         0.0718
     66 H28         2.1358    5.8550   -5.6547 H         1 <0>         0.0606
     67 H29         0.5392    5.7688   -6.3906 H         1 <0>         0.0458
     68 H30         2.7419    7.7748   -7.0444 H         1 <0>         0.0375
     69 H31         1.1870    7.7255   -7.8687 H         1 <0>         0.0392
     70 H32         3.2164    5.3787   -7.8393 H         1 <0>         0.0606
     71 H33         1.6466    5.3535   -8.6384 H         1 <0>         0.0579
     72 H34         1.6137    8.2608   -4.8719 H         1 <0>         0.0571
     73 H35         0.0315    8.1861   -5.6617 H         1 <0>         0.0503
     74 H36         2.4714    3.0747   -8.2388 H         1 <0>         0.0993
     75 H37        -2.4982    3.3913  -12.3759 H         1 <0>         0.3700
     76 H38        -2.5954    5.1358  -12.4112 H         1 <0>         0.3660
     77 H39         0.9557   10.5154   -5.5293 H         1 <0>         0.3465
     78 H40         1.3102   10.0373   -7.1723 H         1 <0>         0.3446
     79 H41         1.0281    4.3550   -4.8229 H         1 <0>         0.3148
     80 H42         0.2924    2.7728   -6.5286 H         1 <0>         0.3220
@<TRIPOS>BOND
     1    1    2 ar
     2    1    3 ar
     3    2    4 ar
     4    3    5 ar
     5    4    6 ar
     6    5    6 ar
     7    6   23 1
     8    7   22 1
     9    7   29 am
    10    7   35 2
    11    8    9 1
    12    8   28 1
    13    8   36 2
    14    9   33 am
    15    9   37 2
    16   10   20 1
    17   10   34 am
    18   10   38 2
    19   11   12 1
    20   11   13 1
    21   12   14 1
    22   13   15 1
    23   14   21 1
    24   15   21 1
    25   16   18 1
    26   16   20 1
    27   17   19 1
    28   17   22 1
    29   18   30 1
    30   19   30 1
    31   20   29 1
    32   21   33 1
    33   22   23 1
    34   22   31 1
    35   24   25 1
    36   24   26 1
    37   25   27 1
    38   26   28 1
    39   27   32 1
    40   28   34 1
    41   29   30 1
    42    1   39 1
    43    2   40 1
    44    3   41 1
    45    4   42 1
    46    5   43 1
    47   11   44 1
    48   11   45 1
    49   12   46 1
    50   12   47 1
    51   13   48 1
    52   13   49 1
    53   14   50 1
    54   14   51 1
    55   15   52 1
    56   15   53 1
    57   16   54 1
    58   16   55 1
    59   17   56 1
    60   17   57 1
    61   18   58 1
    62   18   59 1
    63   19   60 1
    64   19   61 1
    65   20   62 1
    66   21   63 1
    67   23   64 1
    68   23   65 1
    69   24   66 1
    70   24   67 1
    71   25   68 1
    72   25   69 1
    73   26   70 1
    74   26   71 1
    75   27   72 1
    76   27   73 1
    77   28   74 1
    78   31   75 1
    79   31   76 1
    80   32   77 1
    81   32   78 1
    82   33   79 1
    83   34   80 1
@<TRIPOS>MOLECULE
1a46_ligand_244
   80    83     0     0     0
SMALL
USER_CHARGES

mmff94s_NoEstat = 86.16
@<TRIPOS>ATOM
      1 C1          5.9504   -1.3642  -10.1903 C.ar      1 <0>        -0.1300
      2 C2          6.6765   -1.8241   -9.0918 C.ar      1 <0>        -0.1323
      3 C3          5.5463   -0.0305  -10.2504 C.ar      1 <0>        -0.1309
      4 C4          6.9984   -0.9504   -8.0532 C.ar      1 <0>        -0.1275
      5 C5          5.8681    0.8432   -9.2119 C.ar      1 <0>        -0.1272
      6 C6          6.5921    0.3776   -8.1201 C.ar      1 <0>        -0.0843
      7 C7          6.1974    2.2868   -4.7798 C.2       1 <0>         0.6709
      8 C8          5.2358    2.3798    1.5634 C.2       1 <0>         0.4867
      9 C9          3.8230    2.3549    1.0577 C.2       1 <0>         0.5883
     10 C10         5.7098    2.8119   -1.6475 C.2       1 <0>         0.6572
     11 C11         0.9283    6.1987    2.1728 C.3       1 <0>        -0.0802
     12 C12         1.0626    4.8284    2.8318 C.3       1 <0>        -0.0765
     13 C13         1.8872    6.3615    0.9964 C.3       1 <0>        -0.0774
     14 C14         0.9098    3.6972    1.8142 C.3       1 <0>        -0.0953
     15 C15         1.7320    5.2267   -0.0170 C.3       1 <0>        -0.0906
     16 C16         3.6723    3.8570   -2.6681 C.3       1 <0>        -0.0871
     17 C17         4.4858    1.7161   -6.5463 C.3       1 <0>        -0.0716
     18 C18         2.9535    2.6133   -3.1875 C.3       1 <0>         0.1333
     19 C19         3.4659    2.2898   -5.5476 C.3       1 <0>         0.1246
     20 C20         5.1372    3.5153   -2.8394 C.3       1 <0>         0.0606
     21 C21         1.8637    3.8371    0.6204 C.3       1 <0>         0.1012
     22 C22         5.8481    1.3265   -5.9256 C.3       1 <0>         0.1554
     23 C23         6.9383    1.3175   -7.0029 C.3       1 <0>        -0.0356
     24 C24         8.0800    4.9598    0.7851 C.3       1 <0>        -0.0795
     25 C25         8.7880    6.0338    1.6192 C.3       1 <0>        -0.1203
     26 C26         6.9719    4.2276    1.5544 C.3       1 <0>        -0.0920
     27 C27         9.9095    6.7454    0.8629 C.3       1 <0>         0.1502
     28 C28         6.2906    3.1130    0.7514 C.3       1 <0>         0.0224
     29 N1          5.1345    2.5635   -3.9339 N.am      1 <0>        -0.3553
     30 N2          3.8653    2.0037   -4.1710 N.3       1 <0>        -0.4320
     31 N3          5.7803   -0.0123   -5.3216 N.3       1 <0>        -0.9031
     32 N4          9.3732    7.4215   -0.3138 N.3       1 <0>        -0.9068
     33 N5          3.2455    3.6032    1.0456 N.am      1 <0>        -0.5526
     34 N6          5.7762    3.5917   -0.5046 N.am      1 <0>        -0.5576
     35 O1          7.3278    2.7504   -4.6301 O.2       1 <0>        -0.6710
     36 O2          5.4669    1.7271    2.5732 O.2       1 <0>        -0.4901
     37 O3          3.3466    1.2762    0.7444 O.2       1 <0>        -0.5902
     38 O4          6.0670    1.6440   -1.7490 O.2       1 <0>        -0.5833
     39 H1          5.6997   -2.0446  -10.9989 H         1 <0>         0.1320
     40 H2          6.9911   -2.8626   -9.0451 H         1 <0>         0.1324
     41 H3          4.9808    0.3274  -11.1059 H         1 <0>         0.1328
     42 H4          7.5644   -1.3176   -7.2012 H         1 <0>         0.1324
     43 H5          5.5489    1.8806   -9.2673 H         1 <0>         0.1434
     44 H6         -0.1023    6.3323    1.8214 H         1 <0>         0.0405
     45 H7          1.1162    6.9843    2.9134 H         1 <0>         0.0421
     46 H8          2.0393    4.7542    3.3252 H         1 <0>         0.0362
     47 H9          0.3035    4.7219    3.6152 H         1 <0>         0.0439
     48 H10         1.7025    7.3222    0.5024 H         1 <0>         0.0350
     49 H11         2.9190    6.3892    1.3671 H         1 <0>         0.0428
     50 H12         1.0730    2.7362    2.3169 H         1 <0>         0.0663
     51 H13        -0.1236    3.6910    1.4448 H         1 <0>         0.0466
     52 H14         0.7459    5.3084   -0.4918 H         1 <0>         0.0493
     53 H15         2.4781    5.3493   -0.8115 H         1 <0>         0.0520
     54 H16         3.4181    4.7133   -3.3051 H         1 <0>         0.0915
     55 H17         3.3944    4.0971   -1.6373 H         1 <0>         0.0601
     56 H18         4.0497    0.8441   -7.0524 H         1 <0>         0.0688
     57 H19         4.6431    2.4675   -7.3320 H         1 <0>         0.0630
     58 H20         2.8170    1.9026   -2.3635 H         1 <0>         0.0807
     59 H21         1.9588    2.8453   -3.5837 H         1 <0>         0.0380
     60 H22         3.3744    3.3723   -5.7123 H         1 <0>         0.0484
     61 H23         2.4818    1.8533   -5.7569 H         1 <0>         0.0697
     62 H24         5.7646    4.3810   -3.0694 H         1 <0>         0.0843
     63 H25         1.6435    3.0645   -0.1238 H         1 <0>         0.0831
     64 H26         7.8868    1.0311   -6.5450 H         1 <0>         0.0704
     65 H27         7.0672    2.3317   -7.3854 H         1 <0>         0.0718
     66 H28         7.6494    5.4516   -0.0948 H         1 <0>         0.0606
     67 H29         8.8216    4.2418    0.4157 H         1 <0>         0.0458
     68 H30         8.0356    6.7709    1.9287 H         1 <0>         0.0375
     69 H31         9.1825    5.5824    2.5383 H         1 <0>         0.0392
     70 H32         6.2171    4.9575    1.8728 H         1 <0>         0.0606
     71 H33         7.3929    3.7874    2.4660 H         1 <0>         0.0579
     72 H34        10.6735    6.0252    0.5509 H         1 <0>         0.0571
     73 H35        10.3920    7.4923    1.5001 H         1 <0>         0.0503
     74 H36         7.0421    2.3587    0.4881 H         1 <0>         0.0993
     75 H37         4.9287   -0.2795   -4.8849 H         1 <0>         0.3700
     76 H38         6.6336   -0.5056   -5.1950 H         1 <0>         0.3660
     77 H39        10.0182    7.8250   -0.9589 H         1 <0>         0.3465
     78 H40         8.3988    7.6342   -0.3305 H         1 <0>         0.3446
     79 H41         3.8022    4.3983    1.3448 H         1 <0>         0.3148
     80 H42         5.4441    4.5531   -0.5557 H         1 <0>         0.3220
@<TRIPOS>BOND
     1    1    2 ar
     2    1    3 ar
     3    2    4 ar
     4    3    5 ar
     5    4    6 ar
     6    5    6 ar
     7    6   23 1
     8    7   22 1
     9    7   29 am
    10    7   35 2
    11    8    9 1
    12    8   28 1
    13    8   36 2
    14    9   33 am
    15    9   37 2
    16   10   20 1
    17   10   34 am
    18   10   38 2
    19   11   12 1
    20   11   13 1
    21   12   14 1
    22   13   15 1
    23   14   21 1
    24   15   21 1
    25   16   18 1
    26   16   20 1
    27   17   19 1
    28   17   22 1
    29   18   30 1
    30   19   30 1
    31   20   29 1
    32   21   33 1
    33   22   23 1
    34   22   31 1
    35   24   25 1
    36   24   26 1
    37   25   27 1
    38   26   28 1
    39   27   32 1
    40   28   34 1
    41   29   30 1
    42    1   39 1
    43    2   40 1
    44    3   41 1
    45    4   42 1
    46    5   43 1
    47   11   44 1
    48   11   45 1
    49   12   46 1
    50   12   47 1
    51   13   48 1
    52   13   49 1
    53   14   50 1
    54   14   51 1
    55   15   52 1
    56   15   53 1
    57   16   54 1
    58   16   55 1
    59   17   56 1
    60   17   57 1
    61   18   58 1
    62   18   59 1
    63   19   60 1
    64   19   61 1
    65   20   62 1
    66   21   63 1
    67   23   64 1
    68   23   65 1
    69   24   66 1
    70   24   67 1
    71   25   68 1
    72   25   69 1
    73   26   70 1
    74   26   71 1
    75   27   72 1
    76   27   73 1
    77   28   74 1
    78   31   75 1
    79   31   76 1
    80   32   77 1
    81   32   78 1
    82   33   79 1
    83   34   80 1
@<TRIPOS>MOLECULE
1a46_ligand_245
   80    83     0     0     0
SMALL
USER_CHARGES

mmff94s_NoEstat = 86.16
@<TRIPOS>ATOM
      1 C1         -5.0984    1.0095  -15.6042 C.ar      1 <0>        -0.1300
      2 C2         -3.7796    1.4634  -15.6236 C.ar      1 <0>        -0.1323
      3 C3         -5.8613    1.1325  -14.4430 C.ar      1 <0>        -0.1309
      4 C4         -3.2237    2.0403  -14.4818 C.ar      1 <0>        -0.1275
      5 C5         -5.3054    1.7094  -13.3011 C.ar      1 <0>        -0.1272
      6 C6         -3.9903    2.1595  -13.3280 C.ar      1 <0>        -0.0843
      7 C7         -2.1082    2.3543   -9.9549 C.2       1 <0>         0.6709
      8 C8          2.7796    3.2097   -6.1637 C.2       1 <0>         0.4867
      9 C9          2.2829    2.0299   -5.3801 C.2       1 <0>         0.5883
     10 C10         0.2181    1.9581   -7.7739 C.2       1 <0>         0.6572
     11 C11         0.1500    0.6542   -0.6080 C.3       1 <0>        -0.0802
     12 C12        -0.4291    0.3393   -1.9844 C.3       1 <0>        -0.0765
     13 C13         1.6753    0.6969   -0.6351 C.3       1 <0>        -0.0774
     14 C14         0.0859    1.3085   -3.0472 C.3       1 <0>        -0.0953
     15 C15         2.1931    1.6659   -1.6967 C.3       1 <0>        -0.0906
     16 C16        -1.6037    0.5018   -6.8541 C.3       1 <0>        -0.0871
     17 C17        -3.7434    0.6334  -10.8151 C.3       1 <0>        -0.0716
     18 C18        -1.6334   -0.6036   -7.9078 C.3       1 <0>         0.1333
     19 C19        -3.3867   -0.1439   -9.5363 C.3       1 <0>         0.1246
     20 C20        -1.2590    1.7411   -7.6524 C.3       1 <0>         0.0606
     21 C21         1.6178    1.3392   -3.0792 C.3       1 <0>         0.1012
     22 C22        -2.7218    1.7245  -11.2134 C.3       1 <0>         0.1554
     23 C23        -3.3923    2.7801  -12.0997 C.3       1 <0>        -0.0356
     24 C24         1.4445    5.5921   -8.9731 C.3       1 <0>        -0.0795
     25 C25         1.6370    7.0835   -9.2718 C.3       1 <0>        -0.1203
     26 C26         2.1570    5.1335   -7.6933 C.3       1 <0>        -0.0920
     27 C27         0.9502    7.5360  -10.5601 C.3       1 <0>         0.1502
     28 C28         2.0196    3.6328   -7.4097 C.3       1 <0>         0.0224
     29 N1         -1.7541    1.4338   -8.9807 N.am      1 <0>        -0.3553
     30 N2         -1.9849    0.0592   -9.1756 N.3       1 <0>        -0.4320
     31 N3         -1.5982    1.1378  -11.9581 N.3       1 <0>        -0.9031
     32 N4          1.1922    8.9569  -10.7874 N.3       1 <0>        -0.9068
     33 N5          2.0747    2.3281   -4.0537 N.am      1 <0>        -0.5526
     34 N6          0.6426    3.2153   -7.3763 N.am      1 <0>        -0.5576
     35 O1         -1.9389    3.5681   -9.8411 O.2       1 <0>        -0.6710
     36 O2          3.8302    3.7133   -5.7870 O.2       1 <0>        -0.4901
     37 O3          2.1422    0.9706   -5.9690 O.2       1 <0>        -0.5902
     38 O4          0.9290    1.0536   -8.1959 O.2       1 <0>        -0.5833
     39 H1         -5.5312    0.5602  -16.4933 H         1 <0>         0.1320
     40 H2         -3.1856    1.3675  -16.5278 H         1 <0>         0.1324
     41 H3         -6.8881    0.7789  -14.4280 H         1 <0>         0.1328
     42 H4         -2.1954    2.3911  -14.5062 H         1 <0>         0.1324
     43 H5         -5.9074    1.8011  -12.4009 H         1 <0>         0.1434
     44 H6         -0.2354    1.6218   -0.2633 H         1 <0>         0.0405
     45 H7         -0.1849   -0.0991    0.1141 H         1 <0>         0.0421
     46 H8         -0.1624   -0.6866   -2.2668 H         1 <0>         0.0362
     47 H9         -1.5231    0.3855   -1.9432 H         1 <0>         0.0439
     48 H10         2.0535    0.9929    0.3499 H         1 <0>         0.0350
     49 H11         2.0649   -0.3082   -0.8385 H         1 <0>         0.0428
     50 H12        -0.3043    1.0175   -4.0300 H         1 <0>         0.0663
     51 H13        -0.3051    2.3141   -2.8438 H         1 <0>         0.0466
     52 H14         1.9276    2.6929   -1.4134 H         1 <0>         0.0493
     53 H15         3.2887    1.6258   -1.7274 H         1 <0>         0.0520
     54 H16        -2.6044    0.6122   -6.4185 H         1 <0>         0.0915
     55 H17        -0.8961    0.2875   -6.0474 H         1 <0>         0.0601
     56 H18        -3.8703   -0.0725  -11.6472 H         1 <0>         0.0688
     57 H19        -4.7294    1.0931  -10.6627 H         1 <0>         0.0630
     58 H20        -0.6289   -1.0307   -8.0140 H         1 <0>         0.0807
     59 H21        -2.3061   -1.4224   -7.6298 H         1 <0>         0.0380
     60 H22        -4.0515    0.1805   -8.7237 H         1 <0>         0.0484
     61 H23        -3.5864   -1.2093   -9.7025 H         1 <0>         0.0697
     62 H24        -1.7157    2.6547   -7.2615 H         1 <0>         0.0843
     63 H25         2.0013    0.3710   -3.4212 H         1 <0>         0.0831
     64 H26        -2.6520    3.5331  -12.3759 H         1 <0>         0.0704
     65 H27        -4.1617    3.2932  -11.5198 H         1 <0>         0.0718
     66 H28         0.3683    5.4079   -8.8774 H         1 <0>         0.0606
     67 H29         1.7918    5.0040   -9.8306 H         1 <0>         0.0458
     68 H30         1.2300    7.6523   -8.4256 H         1 <0>         0.0375
     69 H31         2.7093    7.3123   -9.3176 H         1 <0>         0.0392
     70 H32         1.7604    5.7005   -6.8419 H         1 <0>         0.0606
     71 H33         3.2243    5.3739   -7.7660 H         1 <0>         0.0579
     72 H34        -0.1287    7.3572  -10.4981 H         1 <0>         0.0571
     73 H35         1.3345    6.9786  -11.4193 H         1 <0>         0.0503
     74 H36         2.4714    3.0747   -8.2388 H         1 <0>         0.0993
     75 H37        -1.2936    0.2294  -11.6949 H         1 <0>         0.3700
     76 H38        -1.0669    1.7403  -12.5430 H         1 <0>         0.3660
     77 H39         0.7014    9.4044  -11.5317 H         1 <0>         0.3465
     78 H40         1.9755    9.3785  -10.3359 H         1 <0>         0.3446
     79 H41         2.2460    3.2779   -3.7372 H         1 <0>         0.3148
     80 H42        -0.0552    3.8781   -7.0434 H         1 <0>         0.3220
@<TRIPOS>BOND
     1    1    2 ar
     2    1    3 ar
     3    2    4 ar
     4    3    5 ar
     5    4    6 ar
     6    5    6 ar
     7    6   23 1
     8    7   22 1
     9    7   29 am
    10    7   35 2
    11    8    9 1
    12    8   28 1
    13    8   36 2
    14    9   33 am
    15    9   37 2
    16   10   20 1
    17   10   34 am
    18   10   38 2
    19   11   12 1
    20   11   13 1
    21   12   14 1
    22   13   15 1
    23   14   21 1
    24   15   21 1
    25   16   18 1
    26   16   20 1
    27   17   19 1
    28   17   22 1
    29   18   30 1
    30   19   30 1
    31   20   29 1
    32   21   33 1
    33   22   23 1
    34   22   31 1
    35   24   25 1
    36   24   26 1
    37   25   27 1
    38   26   28 1
    39   27   32 1
    40   28   34 1
    41   29   30 1
    42    1   39 1
    43    2   40 1
    44    3   41 1
    45    4   42 1
    46    5   43 1
    47   11   44 1
    48   11   45 1
    49   12   46 1
    50   12   47 1
    51   13   48 1
    52   13   49 1
    53   14   50 1
    54   14   51 1
    55   15   52 1
    56   15   53 1
    57   16   54 1
    58   16   55 1
    59   17   56 1
    60   17   57 1
    61   18   58 1
    62   18   59 1
    63   19   60 1
    64   19   61 1
    65   20   62 1
    66   21   63 1
    67   23   64 1
    68   23   65 1
    69   24   66 1
    70   24   67 1
    71   25   68 1
    72   25   69 1
    73   26   70 1
    74   26   71 1
    75   27   72 1
    76   27   73 1
    77   28   74 1
    78   31   75 1
    79   31   76 1
    80   32   77 1
    81   32   78 1
    82   33   79 1
    83   34   80 1
@<TRIPOS>MOLECULE
1a46_ligand_246
   80    83     0     0     0
SMALL
USER_CHARGES

mmff94s_NoEstat = 86.17
@<TRIPOS>ATOM
      1 C1         -2.6445   10.2618   -2.2387 C.ar      1 <0>        -0.1300
      2 C2         -2.3767    9.6884   -0.9957 C.ar      1 <0>        -0.1323
      3 C3         -2.1497    9.6701   -3.4009 C.ar      1 <0>        -0.1309
      4 C4         -1.6141    8.5233   -0.9148 C.ar      1 <0>        -0.1275
      5 C5         -1.3871    8.5049   -3.3201 C.ar      1 <0>        -0.1272
      6 C6         -1.1243    7.9391   -2.0776 C.ar      1 <0>        -0.0843
      7 C7          2.0326    5.7272   -1.7627 C.2       1 <0>         0.6709
      8 C8          5.2358    2.3798    1.5634 C.2       1 <0>         0.4867
      9 C9          4.0737    1.7586    0.8450 C.2       1 <0>         0.5883
     10 C10         4.7954    4.5647   -0.6048 C.2       1 <0>         0.6572
     11 C11         4.9178   -0.1813   -3.6183 C.3       1 <0>        -0.0802
     12 C12         4.3601    1.1806   -3.2131 C.3       1 <0>        -0.0765
     13 C13         5.2798   -1.0327   -2.4042 C.3       1 <0>        -0.0774
     14 C14         3.1836    1.0419   -2.2460 C.3       1 <0>        -0.0953
     15 C15         4.1009   -1.1664   -1.4392 C.3       1 <0>        -0.0906
     16 C16         5.5346    5.5870   -2.7713 C.3       1 <0>        -0.0871
     17 C17         1.6625    7.8714   -3.0437 C.3       1 <0>        -0.0716
     18 C18         5.3303    7.0689   -2.4625 C.3       1 <0>         0.1333
     19 C19         3.1731    7.8019   -3.3266 C.3       1 <0>         0.1246
     20 C20         4.4137    4.9104   -2.0113 C.3       1 <0>         0.0606
     21 C21         3.5216    0.1899   -1.0153 C.3       1 <0>         0.1012
     22 C22         1.1885    7.0064   -1.8522 C.3       1 <0>         0.1554
     23 C23        -0.3040    6.6858   -1.9906 C.3       1 <0>        -0.0356
     24 C24         7.6485    3.7409    2.8432 C.3       1 <0>        -0.0795
     25 C25         8.2774    4.8743    3.6620 C.3       1 <0>        -0.1203
     26 C26         6.9719    4.2276    1.5544 C.3       1 <0>        -0.0920
     27 C27         8.9284    4.3945    4.9589 C.3       1 <0>         0.1502
     28 C28         6.2906    3.1130    0.7514 C.3       1 <0>         0.0224
     29 N1          3.3921    5.9372   -1.9343 N.am      1 <0>        -0.3553
     30 N2          3.8913    7.2279   -2.1903 N.3       1 <0>        -0.4320
     31 N3          1.3958    7.7147   -0.5806 N.3       1 <0>        -0.9031
     32 N4          9.4866    5.5266    5.6910 N.3       1 <0>        -0.9068
     33 N5          4.4695    0.8988   -0.1529 N.am      1 <0>        -0.5526
     34 N6          5.7762    3.5917   -0.5046 N.am      1 <0>        -0.5576
     35 O1          1.5345    4.6231   -1.5437 O.2       1 <0>        -0.6710
     36 O2          5.3022    2.1819    2.7699 O.2       1 <0>        -0.4901
     37 O3          2.9489    2.0822    1.1900 O.2       1 <0>        -0.5902
     38 O4          4.2448    5.1367    0.3286 O.2       1 <0>        -0.5833
     39 H1         -3.2382   11.1691   -2.3016 H         1 <0>         0.1320
     40 H2         -2.7620   10.1493   -0.0908 H         1 <0>         0.1324
     41 H3         -2.3582   10.1168   -4.3687 H         1 <0>         0.1328
     42 H4         -1.4106    8.0836    0.0580 H         1 <0>         0.1324
     43 H5         -1.0058    8.0510   -4.2309 H         1 <0>         0.1434
     44 H6          4.1729   -0.7122   -4.2240 H         1 <0>         0.0405
     45 H7          5.8027   -0.0446   -4.2501 H         1 <0>         0.0421
     46 H8          5.1542    1.7772   -2.7482 H         1 <0>         0.0362
     47 H9          4.0371    1.7257   -4.1075 H         1 <0>         0.0439
     48 H10         5.5975   -2.0280   -2.7352 H         1 <0>         0.0350
     49 H11         6.1350   -0.5837   -1.8849 H         1 <0>         0.0428
     50 H12         2.8539    2.0404   -1.9345 H         1 <0>         0.0663
     51 H13         2.3414    0.5806   -2.7774 H         1 <0>         0.0466
     52 H14         3.3114   -1.7547   -1.9241 H         1 <0>         0.0493
     53 H15         4.4214   -1.7321   -0.5559 H         1 <0>         0.0520
     54 H16         5.4011    5.4209   -3.8475 H         1 <0>         0.0915
     55 H17         6.5319    5.2374   -2.4876 H         1 <0>         0.0601
     56 H18         1.3705    8.9173   -2.8778 H         1 <0>         0.0688
     57 H19         1.1370    7.5576   -3.9559 H         1 <0>         0.0630
     58 H20         5.8802    7.3284   -1.5498 H         1 <0>         0.0807
     59 H21         5.7080    7.7145   -3.2631 H         1 <0>         0.0380
     60 H22         3.3395    7.2079   -4.2360 H         1 <0>         0.0484
     61 H23         3.5406    8.8134   -3.5374 H         1 <0>         0.0697
     62 H24         4.0335    4.0099   -2.5019 H         1 <0>         0.0843
     63 H25         2.6216    0.0369   -0.4106 H         1 <0>         0.0831
     64 H26        -0.6181    6.0842   -1.1357 H         1 <0>         0.0704
     65 H27        -0.4536    6.0709   -2.8800 H         1 <0>         0.0718
     66 H28         8.4445    3.0306    2.5915 H         1 <0>         0.0606
     67 H29         6.9275    3.2007    3.4679 H         1 <0>         0.0458
     68 H30         9.0354    5.3625    3.0356 H         1 <0>         0.0375
     69 H31         7.5157    5.6329    3.8824 H         1 <0>         0.0392
     70 H32         7.7210    4.7221    0.9235 H         1 <0>         0.0606
     71 H33         6.2174    4.9831    1.8035 H         1 <0>         0.0579
     72 H34         9.7251    3.6753    4.7403 H         1 <0>         0.0571
     73 H35         8.1937    3.8977    5.5994 H         1 <0>         0.0503
     74 H36         7.0421    2.3587    0.4881 H         1 <0>         0.0993
     75 H37         2.1998    8.2929   -0.4996 H         1 <0>         0.3700
     76 H38         0.8492    7.4324    0.1998 H         1 <0>         0.3660
     77 H39        10.0430    5.3371    6.4969 H         1 <0>         0.3465
     78 H40         9.1331    6.4373    5.4892 H         1 <0>         0.3446
     79 H41         5.4635    0.7487   -0.2981 H         1 <0>         0.3148
     80 H42         6.1527    3.1949   -1.3636 H         1 <0>         0.3220
@<TRIPOS>BOND
     1    1    2 ar
     2    1    3 ar
     3    2    4 ar
     4    3    5 ar
     5    4    6 ar
     6    5    6 ar
     7    6   23 1
     8    7   22 1
     9    7   29 am
    10    7   35 2
    11    8    9 1
    12    8   28 1
    13    8   36 2
    14    9   33 am
    15    9   37 2
    16   10   20 1
    17   10   34 am
    18   10   38 2
    19   11   12 1
    20   11   13 1
    21   12   14 1
    22   13   15 1
    23   14   21 1
    24   15   21 1
    25   16   18 1
    26   16   20 1
    27   17   19 1
    28   17   22 1
    29   18   30 1
    30   19   30 1
    31   20   29 1
    32   21   33 1
    33   22   23 1
    34   22   31 1
    35   24   25 1
    36   24   26 1
    37   25   27 1
    38   26   28 1
    39   27   32 1
    40   28   34 1
    41   29   30 1
    42    1   39 1
    43    2   40 1
    44    3   41 1
    45    4   42 1
    46    5   43 1
    47   11   44 1
    48   11   45 1
    49   12   46 1
    50   12   47 1
    51   13   48 1
    52   13   49 1
    53   14   50 1
    54   14   51 1
    55   15   52 1
    56   15   53 1
    57   16   54 1
    58   16   55 1
    59   17   56 1
    60   17   57 1
    61   18   58 1
    62   18   59 1
    63   19   60 1
    64   19   61 1
    65   20   62 1
    66   21   63 1
    67   23   64 1
    68   23   65 1
    69   24   66 1
    70   24   67 1
    71   25   68 1
    72   25   69 1
    73   26   70 1
    74   26   71 1
    75   27   72 1
    76   27   73 1
    77   28   74 1
    78   31   75 1
    79   31   76 1
    80   32   77 1
    81   32   78 1
    82   33   79 1
    83   34   80 1
@<TRIPOS>MOLECULE
1a46_ligand_247
   80    83     0     0     0
SMALL
USER_CHARGES

mmff94s_NoEstat = 86.19
@<TRIPOS>ATOM
      1 C1          9.1717   11.5998   -4.8818 C.ar      1 <0>        -0.1300
      2 C2          9.5642   11.0570   -3.6583 C.ar      1 <0>        -0.1323
      3 C3          7.9808   11.1858   -5.4786 C.ar      1 <0>        -0.1309
      4 C4          8.7658   10.1002   -3.0316 C.ar      1 <0>        -0.1275
      5 C5          7.1825   10.2289   -4.8519 C.ar      1 <0>        -0.1272
      6 C6          7.5802    9.6924   -3.6325 C.ar      1 <0>        -0.0843
      7 C7          6.2313    6.1878   -2.7072 C.2       1 <0>         0.6709
      8 C8          5.2358    2.3798    1.5634 C.2       1 <0>         0.4867
      9 C9          4.0737    1.7586    0.8450 C.2       1 <0>         0.5883
     10 C10         6.2126    3.1256   -1.7338 C.2       1 <0>         0.6572
     11 C11         4.8597   -2.3625   -1.7617 C.3       1 <0>        -0.0802
     12 C12         5.2794   -1.0401   -2.3982 C.3       1 <0>        -0.0765
     13 C13         4.2715   -2.1623   -0.3676 C.3       1 <0>        -0.0774
     14 C14         4.1312   -0.0301   -2.4063 C.3       1 <0>        -0.0953
     15 C15         3.1253   -1.1498   -0.3806 C.3       1 <0>        -0.0906
     16 C16         5.5888    2.9013   -4.1517 C.3       1 <0>        -0.0871
     17 C17         6.9946    7.1086   -4.9309 C.3       1 <0>        -0.0716
     18 C18         6.9015    3.3122   -4.8158 C.3       1 <0>         0.1333
     19 C19         6.8105    5.6670   -5.4355 C.3       1 <0>         0.1246
     20 C20         5.5372    3.7637   -2.9085 C.3       1 <0>         0.0606
     21 C21         3.5216    0.1899   -1.0153 C.3       1 <0>         0.1012
     22 C22         7.1071    7.2451   -3.3942 C.3       1 <0>         0.1554
     23 C23         6.7215    8.6631   -2.9584 C.3       1 <0>        -0.0356
     24 C24         6.0158    5.3379    2.0114 C.3       1 <0>        -0.0795
     25 C25         6.7209    6.4716    2.7653 C.3       1 <0>        -0.1203
     26 C26         6.9719    4.2276    1.5544 C.3       1 <0>        -0.0920
     27 C27         7.4119    6.0077    4.0472 C.3       1 <0>         0.1502
     28 C28         6.2906    3.1130    0.7514 C.3       1 <0>         0.0224
     29 N1          6.3255    4.9256   -3.2726 N.am      1 <0>        -0.3553
     30 N2          7.1486    4.7012   -4.3918 N.3       1 <0>        -0.4320
     31 N3          8.4826    6.9796   -2.9479 N.3       1 <0>        -0.9031
     32 N4          8.0424    7.1400    4.7175 N.3       1 <0>        -0.9068
     33 N5          4.4695    0.8988   -0.1529 N.am      1 <0>        -0.5526
     34 N6          5.7762    3.5917   -0.5046 N.am      1 <0>        -0.5576
     35 O1          5.5247    6.4489   -1.7337 O.2       1 <0>        -0.6710
     36 O2          5.3022    2.1819    2.7699 O.2       1 <0>        -0.4901
     37 O3          2.9489    2.0822    1.1900 O.2       1 <0>        -0.5902
     38 O4          7.0689    2.2691   -1.9210 O.2       1 <0>        -0.5833
     39 H1          9.7933   12.3448   -5.3699 H         1 <0>         0.1320
     40 H2         10.4914   11.3794   -3.1938 H         1 <0>         0.1324
     41 H3          7.6754   11.6084   -6.4314 H         1 <0>         0.1328
     42 H4          9.0796    9.6828   -2.0785 H         1 <0>         0.1324
     43 H5          6.2564    9.9124   -5.3244 H         1 <0>         0.1434
     44 H6          4.1159   -2.8528   -2.4019 H         1 <0>         0.0405
     45 H7          5.7231   -3.0350   -1.7048 H         1 <0>         0.0421
     46 H8          6.1342   -0.6256   -1.8502 H         1 <0>         0.0362
     47 H9          5.6182   -1.2183   -3.4252 H         1 <0>         0.0439
     48 H10         3.9090   -3.1215    0.0193 H         1 <0>         0.0350
     49 H11         5.0588   -1.8223    0.3160 H         1 <0>         0.0428
     50 H12         4.4917    0.9217   -2.8150 H         1 <0>         0.0663
     51 H13         3.3477   -0.3907   -3.0849 H         1 <0>         0.0466
     52 H14         2.2839   -1.5748   -0.9427 H         1 <0>         0.0493
     53 H15         2.7736   -0.9912    0.6460 H         1 <0>         0.0520
     54 H16         4.7529    3.1603   -4.8133 H         1 <0>         0.0915
     55 H17         5.5468    1.8277   -3.9440 H         1 <0>         0.0601
     56 H18         7.8817    7.5503   -5.4050 H         1 <0>         0.0688
     57 H19         6.1410    7.6997   -5.2894 H         1 <0>         0.0630
     58 H20         7.7153    2.6878   -4.4279 H         1 <0>         0.0807
     59 H21         6.8766    3.1741   -5.9024 H         1 <0>         0.0380
     60 H22         5.7721    5.5353   -5.7700 H         1 <0>         0.0484
     61 H23         7.4480    5.5158   -6.3149 H         1 <0>         0.0697
     62 H24         4.5229    4.0496   -2.6159 H         1 <0>         0.0843
     63 H25         2.6430    0.8387   -1.0930 H         1 <0>         0.0831
     64 H26         6.8173    8.7391   -1.8738 H         1 <0>         0.0704
     65 H27         5.6691    8.8325   -3.1938 H         1 <0>         0.0718
     66 H28         5.2579    4.9142    2.6804 H         1 <0>         0.0606
     67 H29         5.4809    5.7546    1.1500 H         1 <0>         0.0458
     68 H30         7.4668    6.9122    2.0910 H         1 <0>         0.0375
     69 H31         5.9973    7.2642    2.9945 H         1 <0>         0.0392
     70 H32         7.4599    3.7926    2.4354 H         1 <0>         0.0606
     71 H33         7.7645    4.6634    0.9347 H         1 <0>         0.0579
     72 H34         8.1719    5.2532    3.8170 H         1 <0>         0.0571
     73 H35         6.6895    5.5581    4.7347 H         1 <0>         0.0503
     74 H36         7.0421    2.3587    0.4881 H         1 <0>         0.0993
     75 H37         9.0003    6.2852   -3.4348 H         1 <0>         0.3700
     76 H38         8.7621    7.3483   -2.0685 H         1 <0>         0.3660
     77 H39         8.6273    6.9547    5.5039 H         1 <0>         0.3465
     78 H40         7.7128    8.0567    4.5024 H         1 <0>         0.3446
     79 H41         5.4635    0.7487   -0.2981 H         1 <0>         0.3148
     80 H42         5.0545    4.3100   -0.4888 H         1 <0>         0.3220
@<TRIPOS>BOND
     1    1    2 ar
     2    1    3 ar
     3    2    4 ar
     4    3    5 ar
     5    4    6 ar
     6    5    6 ar
     7    6   23 1
     8    7   22 1
     9    7   29 am
    10    7   35 2
    11    8    9 1
    12    8   28 1
    13    8   36 2
    14    9   33 am
    15    9   37 2
    16   10   20 1
    17   10   34 am
    18   10   38 2
    19   11   12 1
    20   11   13 1
    21   12   14 1
    22   13   15 1
    23   14   21 1
    24   15   21 1
    25   16   18 1
    26   16   20 1
    27   17   19 1
    28   17   22 1
    29   18   30 1
    30   19   30 1
    31   20   29 1
    32   21   33 1
    33   22   23 1
    34   22   31 1
    35   24   25 1
    36   24   26 1
    37   25   27 1
    38   26   28 1
    39   27   32 1
    40   28   34 1
    41   29   30 1
    42    1   39 1
    43    2   40 1
    44    3   41 1
    45    4   42 1
    46    5   43 1
    47   11   44 1
    48   11   45 1
    49   12   46 1
    50   12   47 1
    51   13   48 1
    52   13   49 1
    53   14   50 1
    54   14   51 1
    55   15   52 1
    56   15   53 1
    57   16   54 1
    58   16   55 1
    59   17   56 1
    60   17   57 1
    61   18   58 1
    62   18   59 1
    63   19   60 1
    64   19   61 1
    65   20   62 1
    66   21   63 1
    67   23   64 1
    68   23   65 1
    69   24   66 1
    70   24   67 1
    71   25   68 1
    72   25   69 1
    73   26   70 1
    74   26   71 1
    75   27   72 1
    76   27   73 1
    77   28   74 1
    78   31   75 1
    79   31   76 1
    80   32   77 1
    81   32   78 1
    82   33   79 1
    83   34   80 1
@<TRIPOS>MOLECULE
1a46_ligand_248
   80    83     0     0     0
SMALL
USER_CHARGES

mmff94s_NoEstat = 86.19
@<TRIPOS>ATOM
      1 C1          8.7841   12.3584   -5.8200 C.ar      1 <0>        -0.1300
      2 C2          9.2413   12.0197   -4.5466 C.ar      1 <0>        -0.1323
      3 C3          7.6186   11.7776   -6.3200 C.ar      1 <0>        -0.1309
      4 C4          8.5332   11.1000   -3.7731 C.ar      1 <0>        -0.1275
      5 C5          6.9105   10.8578   -5.5465 C.ar      1 <0>        -0.1272
      6 C6          7.3724   10.5251   -4.2781 C.ar      1 <0>        -0.0843
      7 C7          6.3227    7.0882   -2.8484 C.2       1 <0>         0.6709
      8 C8          5.2358    2.3798    1.5634 C.2       1 <0>         0.4867
      9 C9          5.6522    1.1980    2.3894 C.2       1 <0>         0.5883
     10 C10         6.5648    4.1956   -1.4701 C.2       1 <0>         0.6572
     11 C11         8.5733   -2.2013    0.3137 C.3       1 <0>        -0.0802
     12 C12         7.0878   -2.2472   -0.0344 C.3       1 <0>        -0.0765
     13 C13         8.9012   -1.0498    1.2605 C.3       1 <0>        -0.0774
     14 C14         6.2162   -2.2794    1.2217 C.3       1 <0>        -0.0953
     15 C15         8.0255   -1.0852    2.5138 C.3       1 <0>        -0.0906
     16 C16         5.9150    3.5956   -3.8160 C.3       1 <0>        -0.0871
     17 C17         6.9686    7.7509   -5.1976 C.3       1 <0>        -0.0716
     18 C18         7.1782    4.0100   -4.5681 C.3       1 <0>         0.1333
     19 C19         6.8896    6.2440   -5.4973 C.3       1 <0>         0.1246
     20 C20         5.8189    4.6139   -2.6998 C.3       1 <0>         0.0606
     21 C21         6.5260   -1.1310    2.1912 C.3       1 <0>         0.1012
     22 C22         7.0990    8.1048   -3.6974 C.3       1 <0>         0.1554
     23 C23         6.6107    9.5357   -3.4460 C.3       1 <0>        -0.0356
     24 C24         7.6485    3.7409    2.8432 C.3       1 <0>        -0.0795
     25 C25         8.2774    4.8743    3.6620 C.3       1 <0>        -0.1203
     26 C26         6.9719    4.2276    1.5544 C.3       1 <0>        -0.0920
     27 C27         8.9284    4.3945    4.9589 C.3       1 <0>         0.1502
     28 C28         6.2906    3.1130    0.7514 C.3       1 <0>         0.0224
     29 N1          6.5058    5.7713   -3.2406 N.am      1 <0>        -0.3553
     30 N2          7.3227    5.4587   -4.3431 N.3       1 <0>        -0.4320
     31 N3          8.4993    8.0079   -3.2602 N.3       1 <0>        -0.9031
     32 N4         10.0019    3.4511    4.6645 N.3       1 <0>        -0.9068
     33 N5          6.0911    0.1457    1.6201 N.am      1 <0>        -0.5526
     34 N6          5.7762    3.5917   -0.5046 N.am      1 <0>        -0.5576
     35 O1          5.6162    7.4259   -1.8987 O.2       1 <0>        -0.6710
     36 O2          4.0675    2.7325    1.6631 O.2       1 <0>        -0.4901
     37 O3          5.5431    1.2807    3.6019 O.2       1 <0>        -0.5902
     38 O4          7.7705    4.4014   -1.3956 O.2       1 <0>        -0.5833
     39 H1          9.3355   13.0745   -6.4223 H         1 <0>         0.1320
     40 H2         10.1488   12.4721   -4.1574 H         1 <0>         0.1324
     41 H3          7.2628   12.0413   -7.3117 H         1 <0>         0.1328
     42 H4          8.8970   10.8421   -2.7820 H         1 <0>         0.1324
     43 H5          6.0035   10.4103   -5.9443 H         1 <0>         0.1434
     44 H6          8.8652   -3.1496    0.7818 H         1 <0>         0.0405
     45 H7          9.1645   -2.1042   -0.6039 H         1 <0>         0.0421
     46 H8          6.8280   -1.3732   -0.6439 H         1 <0>         0.0362
     47 H9          6.8815   -3.1326   -0.6466 H         1 <0>         0.0439
     48 H10         9.9572   -1.1013    1.5494 H         1 <0>         0.0350
     49 H11         8.7621   -0.0959    0.7377 H         1 <0>         0.0428
     50 H12         5.1599   -2.2505    0.9279 H         1 <0>         0.0663
     51 H13         6.3761   -3.2341    1.7388 H         1 <0>         0.0466
     52 H14         8.2894   -1.9712    3.1052 H         1 <0>         0.0493
     53 H15         8.2509   -0.2099    3.1351 H         1 <0>         0.0520
     54 H16         5.0489    3.6975   -4.4816 H         1 <0>         0.0915
     55 H17         5.9620    2.5605   -3.4641 H         1 <0>         0.0601
     56 H18         7.8089    8.1894   -5.7531 H         1 <0>         0.0688
     57 H19         6.0643    8.2210   -5.6074 H         1 <0>         0.0630
     58 H20         8.0462    3.5082   -4.1236 H         1 <0>         0.0807
     59 H21         7.1438    3.7229   -5.6248 H         1 <0>         0.0380
     60 H22         5.8587    5.9894   -5.7800 H         1 <0>         0.0484
     61 H23         7.5203    6.0225   -6.3666 H         1 <0>         0.0697
     62 H24         4.7909    4.8594   -2.4187 H         1 <0>         0.0843
     63 H25         5.9510   -1.2586    3.1143 H         1 <0>         0.0831
     64 H26         6.7207    9.7666   -2.3849 H         1 <0>         0.0704
     65 H27         5.5439    9.5911   -3.6710 H         1 <0>         0.0718
     66 H28         8.4445    3.0306    2.5915 H         1 <0>         0.0606
     67 H29         6.9275    3.2007    3.4679 H         1 <0>         0.0458
     68 H30         9.0354    5.3625    3.0356 H         1 <0>         0.0375
     69 H31         7.5157    5.6329    3.8824 H         1 <0>         0.0392
     70 H32         7.7210    4.7221    0.9235 H         1 <0>         0.0606
     71 H33         6.2174    4.9831    1.8035 H         1 <0>         0.0579
     72 H34         8.1846    3.9091    5.6001 H         1 <0>         0.0571
     73 H35         9.3517    5.2370    5.5137 H         1 <0>         0.0503
     74 H36         7.0421    2.3587    0.4881 H         1 <0>         0.0993
     75 H37         9.0611    7.2946   -3.6639 H         1 <0>         0.3700
     76 H38         8.7654    8.5137   -2.4473 H         1 <0>         0.3660
     77 H39        10.4299    2.9725    5.4279 H         1 <0>         0.3465
     78 H40        10.4049    3.4672    3.7521 H         1 <0>         0.3446
     79 H41         6.1146    0.2589    0.6111 H         1 <0>         0.3148
     80 H42         4.7816    3.4809   -0.6931 H         1 <0>         0.3220
@<TRIPOS>BOND
     1    1    2 ar
     2    1    3 ar
     3    2    4 ar
     4    3    5 ar
     5    4    6 ar
     6    5    6 ar
     7    6   23 1
     8    7   22 1
     9    7   29 am
    10    7   35 2
    11    8    9 1
    12    8   28 1
    13    8   36 2
    14    9   33 am
    15    9   37 2
    16   10   20 1
    17   10   34 am
    18   10   38 2
    19   11   12 1
    20   11   13 1
    21   12   14 1
    22   13   15 1
    23   14   21 1
    24   15   21 1
    25   16   18 1
    26   16   20 1
    27   17   19 1
    28   17   22 1
    29   18   30 1
    30   19   30 1
    31   20   29 1
    32   21   33 1
    33   22   23 1
    34   22   31 1
    35   24   25 1
    36   24   26 1
    37   25   27 1
    38   26   28 1
    39   27   32 1
    40   28   34 1
    41   29   30 1
    42    1   39 1
    43    2   40 1
    44    3   41 1
    45    4   42 1
    46    5   43 1
    47   11   44 1
    48   11   45 1
    49   12   46 1
    50   12   47 1
    51   13   48 1
    52   13   49 1
    53   14   50 1
    54   14   51 1
    55   15   52 1
    56   15   53 1
    57   16   54 1
    58   16   55 1
    59   17   56 1
    60   17   57 1
    61   18   58 1
    62   18   59 1
    63   19   60 1
    64   19   61 1
    65   20   62 1
    66   21   63 1
    67   23   64 1
    68   23   65 1
    69   24   66 1
    70   24   67 1
    71   25   68 1
    72   25   69 1
    73   26   70 1
    74   26   71 1
    75   27   72 1
    76   27   73 1
    77   28   74 1
    78   31   75 1
    79   31   76 1
    80   32   77 1
    81   32   78 1
    82   33   79 1
    83   34   80 1
@<TRIPOS>MOLECULE
1a46_ligand_249
   80    83     0     0     0
SMALL
USER_CHARGES

mmff94s_NoEstat = 86.20
@<TRIPOS>ATOM
      1 C1          9.3427    1.2226  -10.2936 C.ar      1 <0>        -0.1300
      2 C2          9.9666    0.8172   -9.1138 C.ar      1 <0>        -0.1323
      3 C3          8.4336    2.2805  -10.2739 C.ar      1 <0>        -0.1309
      4 C4          9.6814    1.4695   -7.9143 C.ar      1 <0>        -0.1275
      5 C5          8.1485    2.9328   -9.0744 C.ar      1 <0>        -0.1272
      6 C6          8.7742    2.5231   -7.9024 C.ar      1 <0>        -0.0843
      7 C7          6.9710    3.2795   -4.5657 C.2       1 <0>         0.6709
      8 C8          5.2358    2.3798    1.5634 C.2       1 <0>         0.4867
      9 C9          4.9672    2.8271    2.9706 C.2       1 <0>         0.5883
     10 C10         5.7098    2.8119   -1.6475 C.2       1 <0>         0.6572
     11 C11         0.2716    3.3826    4.3985 C.3       1 <0>        -0.0802
     12 C12         0.8842    4.4980    3.5555 C.3       1 <0>        -0.0765
     13 C13         1.2566    2.2409    4.6351 C.3       1 <0>        -0.0774
     14 C14         2.1995    4.9981    4.1541 C.3       1 <0>        -0.0953
     15 C15         2.5710    2.7464    5.2316 C.3       1 <0>        -0.0906
     16 C16         3.6624    3.2324   -3.0320 C.3       1 <0>        -0.0871
     17 C17         6.0388    2.5547   -6.7975 C.3       1 <0>        -0.0716
     18 C18         3.6514    1.9752   -3.8994 C.3       1 <0>         0.1333
     19 C19         4.6996    2.4463   -6.0480 C.3       1 <0>         0.1246
     20 C20         5.1372    3.5153   -2.8394 C.3       1 <0>         0.0606
     21 C21         3.2085    3.8688    4.4019 C.3       1 <0>         0.1012
     22 C22         7.2891    2.5653   -5.8869 C.3       1 <0>         0.1554
     23 C23         8.4675    3.2247   -6.6121 C.3       1 <0>        -0.0356
     24 C24         8.0800    4.9598    0.7851 C.3       1 <0>        -0.0795
     25 C25         8.7880    6.0338    1.6192 C.3       1 <0>        -0.1203
     26 C26         6.9719    4.2276    1.5544 C.3       1 <0>        -0.0920
     27 C27         9.9095    6.7454    0.8629 C.3       1 <0>         0.1502
     28 C28         6.2906    3.1130    0.7514 C.3       1 <0>         0.0224
     29 N1          5.7488    2.9259   -4.0152 N.am      1 <0>        -0.3553
     30 N2          4.9069    2.0073   -4.6693 N.3       1 <0>        -0.4320
     31 N3          7.6768    1.1953   -5.5201 N.3       1 <0>        -0.9031
     32 N4         10.5470    7.7366    1.7233 N.3       1 <0>        -0.9068
     33 N5          3.7009    3.3404    3.1278 N.am      1 <0>        -0.5526
     34 N6          5.7762    3.5917   -0.5046 N.am      1 <0>        -0.5576
     35 O1          7.7474    4.0812   -4.0464 O.2       1 <0>        -0.6710
     36 O2          4.5176    1.4899    1.1258 O.2       1 <0>        -0.4901
     37 O3          5.8662    2.7146    3.7879 O.2       1 <0>        -0.5902
     38 O4          6.0670    1.6440   -1.7490 O.2       1 <0>        -0.5833
     39 H1          9.5646    0.7147  -11.2275 H         1 <0>         0.1320
     40 H2         10.6743   -0.0064   -9.1292 H         1 <0>         0.1324
     41 H3          7.9478    2.5960  -11.1926 H         1 <0>         0.1328
     42 H4         10.1723    1.1467   -7.0000 H         1 <0>         0.1324
     43 H5          7.4388    3.7559   -9.0687 H         1 <0>         0.1434
     44 H6         -0.0473    3.7924    5.3649 H         1 <0>         0.0405
     45 H7         -0.6275    2.9978    3.9040 H         1 <0>         0.0421
     46 H8          1.0557    4.1332    2.5355 H         1 <0>         0.0362
     47 H9          0.1762    5.3312    3.4787 H         1 <0>         0.0439
     48 H10         0.8079    1.5026    5.3094 H         1 <0>         0.0350
     49 H11         1.4534    1.7257    3.6873 H         1 <0>         0.0428
     50 H12         2.6344    5.7530    3.4879 H         1 <0>         0.0663
     51 H13         1.9865    5.4999    5.1066 H         1 <0>         0.0466
     52 H14         2.3793    3.1187    6.2461 H         1 <0>         0.0493
     53 H15         3.2690    1.9060    5.3283 H         1 <0>         0.0520
     54 H16         3.1996    4.0578   -3.5869 H         1 <0>         0.0915
     55 H17         3.1150    3.0948   -2.0945 H         1 <0>         0.0601
     56 H18         6.1186    1.7328   -7.5220 H         1 <0>         0.0688
     57 H19         6.0134    3.4760   -7.3953 H         1 <0>         0.0630
     58 H20         3.6705    1.0888   -3.2538 H         1 <0>         0.0807
     59 H21         2.7495    1.9066   -4.5175 H         1 <0>         0.0380
     60 H22         4.1937    3.4213   -6.0771 H         1 <0>         0.0484
     61 H23         4.0529    1.7380   -6.5798 H         1 <0>         0.0697
     62 H24         5.3721    4.5807   -2.7630 H         1 <0>         0.0843
     63 H25         4.0871    4.2632    4.9231 H         1 <0>         0.0831
     64 H26         9.3395    3.2124   -5.9558 H         1 <0>         0.0704
     65 H27         8.2279    4.2735   -6.7972 H         1 <0>         0.0718
     66 H28         7.6494    5.4516   -0.0948 H         1 <0>         0.0606
     67 H29         8.8216    4.2418    0.4157 H         1 <0>         0.0458
     68 H30         8.0356    6.7709    1.9287 H         1 <0>         0.0375
     69 H31         9.1825    5.5824    2.5383 H         1 <0>         0.0392
     70 H32         6.2171    4.9575    1.8728 H         1 <0>         0.0606
     71 H33         7.3929    3.7874    2.4660 H         1 <0>         0.0579
     72 H34         9.5108    7.2416   -0.0285 H         1 <0>         0.0571
     73 H35        10.6706    6.0303    0.5375 H         1 <0>         0.0503
     74 H36         7.0421    2.3587    0.4881 H         1 <0>         0.0993
     75 H37         6.9507    0.5323   -5.3773 H         1 <0>         0.3700
     76 H38         8.6161    1.0420   -5.2343 H         1 <0>         0.3660
     77 H39        11.2163    8.3531    1.3147 H         1 <0>         0.3465
     78 H40        10.4498    7.6340    2.7108 H         1 <0>         0.3446
     79 H41         3.0795    3.3535    2.3245 H         1 <0>         0.3148
     80 H42         5.4441    4.5531   -0.5557 H         1 <0>         0.3220
@<TRIPOS>BOND
     1    1    2 ar
     2    1    3 ar
     3    2    4 ar
     4    3    5 ar
     5    4    6 ar
     6    5    6 ar
     7    6   23 1
     8    7   22 1
     9    7   29 am
    10    7   35 2
    11    8    9 1
    12    8   28 1
    13    8   36 2
    14    9   33 am
    15    9   37 2
    16   10   20 1
    17   10   34 am
    18   10   38 2
    19   11   12 1
    20   11   13 1
    21   12   14 1
    22   13   15 1
    23   14   21 1
    24   15   21 1
    25   16   18 1
    26   16   20 1
    27   17   19 1
    28   17   22 1
    29   18   30 1
    30   19   30 1
    31   20   29 1
    32   21   33 1
    33   22   23 1
    34   22   31 1
    35   24   25 1
    36   24   26 1
    37   25   27 1
    38   26   28 1
    39   27   32 1
    40   28   34 1
    41   29   30 1
    42    1   39 1
    43    2   40 1
    44    3   41 1
    45    4   42 1
    46    5   43 1
    47   11   44 1
    48   11   45 1
    49   12   46 1
    50   12   47 1
    51   13   48 1
    52   13   49 1
    53   14   50 1
    54   14   51 1
    55   15   52 1
    56   15   53 1
    57   16   54 1
    58   16   55 1
    59   17   56 1
    60   17   57 1
    61   18   58 1
    62   18   59 1
    63   19   60 1
    64   19   61 1
    65   20   62 1
    66   21   63 1
    67   23   64 1
    68   23   65 1
    69   24   66 1
    70   24   67 1
    71   25   68 1
    72   25   69 1
    73   26   70 1
    74   26   71 1
    75   27   72 1
    76   27   73 1
    77   28   74 1
    78   31   75 1
    79   31   76 1
    80   32   77 1
    81   32   78 1
    82   33   79 1
    83   34   80 1
@<TRIPOS>MOLECULE
1a46_ligand_250
   80    83     0     0     0
SMALL
USER_CHARGES

mmff94s_NoEstat = 86.21
@<TRIPOS>ATOM
      1 C1         -4.6917   -3.0051  -14.5357 C.ar      1 <0>        -0.1300
      2 C2         -3.4233   -2.4813  -14.7856 C.ar      1 <0>        -0.1323
      3 C3         -5.5209   -2.4030  -13.5893 C.ar      1 <0>        -0.1309
      4 C4         -2.9840   -1.3555  -14.0891 C.ar      1 <0>        -0.1275
      5 C5         -5.0816   -1.2772  -12.8927 C.ar      1 <0>        -0.1272
      6 C6         -3.8160   -0.7608  -13.1471 C.ar      1 <0>        -0.0843
      7 C7         -2.1349    1.2928  -10.3339 C.2       1 <0>         0.6709
      8 C8          2.7796    3.2097   -6.1637 C.2       1 <0>         0.4867
      9 C9          2.0233    2.5606   -5.0416 C.2       1 <0>         0.5883
     10 C10         0.1051    2.2921   -8.2580 C.2       1 <0>         0.6572
     11 C11         0.9627   -2.2745   -2.8709 C.3       1 <0>        -0.0802
     12 C12         2.1915   -1.5746   -2.2973 C.3       1 <0>        -0.0765
     13 C13        -0.0614   -1.2730   -3.3975 C.3       1 <0>        -0.0774
     14 C14         2.8154   -0.6136   -3.3079 C.3       1 <0>        -0.0953
     15 C15         0.5596   -0.3111   -4.4090 C.3       1 <0>        -0.0906
     16 C16        -1.6127    1.3005   -6.7245 C.3       1 <0>        -0.0871
     17 C17        -3.5515   -0.7936  -10.2088 C.3       1 <0>        -0.0716
     18 C18        -1.4826   -0.1787   -7.0821 C.3       1 <0>         0.1333
     19 C19        -3.1872   -0.7856   -8.7142 C.3       1 <0>         0.1246
     20 C20        -1.3485    2.0056   -8.0379 C.3       1 <0>         0.0606
     21 C21         1.7865    0.3978   -3.8249 C.3       1 <0>         0.1012
     22 C22        -2.6206    0.0571  -11.1047 C.3       1 <0>         0.1554
     23 C23        -3.3435    0.4502  -12.3978 C.3       1 <0>        -0.0356
     24 C24         1.5857    6.0302   -6.5865 C.3       1 <0>        -0.0795
     25 C25         1.6811    7.5259   -6.9095 C.3       1 <0>        -0.1203
     26 C26         2.1570    5.1335   -7.6933 C.3       1 <0>        -0.0920
     27 C27         1.0885    8.4192   -5.8200 C.3       1 <0>         0.1502
     28 C28         2.0196    3.6328   -7.4097 C.3       1 <0>         0.0224
     29 N1         -1.7438    1.0253   -9.0311 N.am      1 <0>        -0.3553
     30 N2         -1.8314   -0.2790   -8.5099 N.3       1 <0>        -0.4320
     31 N3         -1.4094   -0.6969  -11.4599 N.3       1 <0>        -0.9031
     32 N4          1.1980    9.8225   -6.2046 N.3       1 <0>        -0.9068
     33 N5          2.3972    1.2522   -4.8415 N.am      1 <0>        -0.5526
     34 N6          0.6426    3.2153   -7.3763 N.am      1 <0>        -0.5576
     35 O1         -2.0889    2.4118  -10.8445 O.2       1 <0>        -0.6710
     36 O2          3.9949    3.2835   -6.0334 O.2       1 <0>        -0.4901
     37 O3          1.1778    3.2234   -4.4630 O.2       1 <0>        -0.5902
     38 O4          0.7038    1.7190   -9.1607 O.2       1 <0>        -0.5833
     39 H1         -5.0337   -3.8817  -15.0780 H         1 <0>         0.1320
     40 H2         -2.7778   -2.9502  -15.5226 H         1 <0>         0.1324
     41 H3         -6.5084   -2.8111  -13.3947 H         1 <0>         0.1328
     42 H4         -1.9943   -0.9544  -14.2904 H         1 <0>         0.1324
     43 H5         -5.7344   -0.8149  -12.1571 H         1 <0>         0.1434
     44 H6          1.2708   -2.9426   -3.6849 H         1 <0>         0.0405
     45 H7          0.5020   -2.9019   -2.0994 H         1 <0>         0.0421
     46 H8          1.9077   -1.0201   -1.3943 H         1 <0>         0.0362
     47 H9          2.9331   -2.3220   -1.9937 H         1 <0>         0.0439
     48 H10        -0.8960   -1.8092   -3.8632 H         1 <0>         0.0350
     49 H11        -0.4770   -0.7010   -2.5587 H         1 <0>         0.0428
     50 H12         3.6581   -0.0877   -2.8433 H         1 <0>         0.0663
     51 H13         3.2321   -1.1866   -4.1467 H         1 <0>         0.0466
     52 H14         0.8424   -0.8657   -5.3133 H         1 <0>         0.0493
     53 H15        -0.1883    0.4284   -4.7195 H         1 <0>         0.0520
     54 H16        -2.6402    1.5041   -6.3986 H         1 <0>         0.0915
     55 H17        -0.9296    1.5953   -5.9220 H         1 <0>         0.0601
     56 H18        -3.5677   -1.8293  -10.5746 H         1 <0>         0.0688
     57 H19        -4.5835   -0.4292  -10.3032 H         1 <0>         0.0630
     58 H20        -0.4377   -0.4900   -6.9643 H         1 <0>         0.0807
     59 H21        -2.0868   -0.8173   -6.4283 H         1 <0>         0.0380
     60 H22        -3.9204   -0.1736   -8.1708 H         1 <0>         0.0484
     61 H23        -3.2749   -1.8064   -8.3232 H         1 <0>         0.0697
     62 H24        -1.9101    2.9367   -8.1555 H         1 <0>         0.0843
     63 H25         1.4779    1.0626   -3.0100 H         1 <0>         0.0831
     64 H26        -2.6659    1.0404  -13.0174 H         1 <0>         0.0704
     65 H27        -4.1870    1.0971  -12.1499 H         1 <0>         0.0718
     66 H28         2.1358    5.8550   -5.6547 H         1 <0>         0.0606
     67 H29         0.5392    5.7688   -6.3906 H         1 <0>         0.0458
     68 H30         2.7419    7.7748   -7.0444 H         1 <0>         0.0375
     69 H31         1.1870    7.7255   -7.8687 H         1 <0>         0.0392
     70 H32         3.2164    5.3787   -7.8393 H         1 <0>         0.0606
     71 H33         1.6466    5.3535   -8.6384 H         1 <0>         0.0579
     72 H34         1.6137    8.2608   -4.8719 H         1 <0>         0.0571
     73 H35         0.0315    8.1861   -5.6617 H         1 <0>         0.0503
     74 H36         2.4714    3.0747   -8.2388 H         1 <0>         0.0993
     75 H37        -1.0328   -1.3138  -10.7781 H         1 <0>         0.3700
     76 H38        -0.9095   -0.4127  -12.2703 H         1 <0>         0.3660
     77 H39         0.9557   10.5154   -5.5293 H         1 <0>         0.3465
     78 H40         1.3102   10.0373   -7.1723 H         1 <0>         0.3446
     79 H41         3.1304    0.8623   -5.4263 H         1 <0>         0.3148
     80 H42         0.0323    3.6193   -6.6682 H         1 <0>         0.3220
@<TRIPOS>BOND
     1    1    2 ar
     2    1    3 ar
     3    2    4 ar
     4    3    5 ar
     5    4    6 ar
     6    5    6 ar
     7    6   23 1
     8    7   22 1
     9    7   29 am
    10    7   35 2
    11    8    9 1
    12    8   28 1
    13    8   36 2
    14    9   33 am
    15    9   37 2
    16   10   20 1
    17   10   34 am
    18   10   38 2
    19   11   12 1
    20   11   13 1
    21   12   14 1
    22   13   15 1
    23   14   21 1
    24   15   21 1
    25   16   18 1
    26   16   20 1
    27   17   19 1
    28   17   22 1
    29   18   30 1
    30   19   30 1
    31   20   29 1
    32   21   33 1
    33   22   23 1
    34   22   31 1
    35   24   25 1
    36   24   26 1
    37   25   27 1
    38   26   28 1
    39   27   32 1
    40   28   34 1
    41   29   30 1
    42    1   39 1
    43    2   40 1
    44    3   41 1
    45    4   42 1
    46    5   43 1
    47   11   44 1
    48   11   45 1
    49   12   46 1
    50   12   47 1
    51   13   48 1
    52   13   49 1
    53   14   50 1
    54   14   51 1
    55   15   52 1
    56   15   53 1
    57   16   54 1
    58   16   55 1
    59   17   56 1
    60   17   57 1
    61   18   58 1
    62   18   59 1
    63   19   60 1
    64   19   61 1
    65   20   62 1
    66   21   63 1
    67   23   64 1
    68   23   65 1
    69   24   66 1
    70   24   67 1
    71   25   68 1
    72   25   69 1
    73   26   70 1
    74   26   71 1
    75   27   72 1
    76   27   73 1
    77   28   74 1
    78   31   75 1
    79   31   76 1
    80   32   77 1
    81   32   78 1
    82   33   79 1
    83   34   80 1
@<TRIPOS>MOLECULE
1a46_ligand_251
   80    83     0     0     0
SMALL
USER_CHARGES

mmff94s_NoEstat = 86.22
@<TRIPOS>ATOM
      1 C1         11.2165    5.1344   -9.5699 C.ar      1 <0>        -0.1300
      2 C2         11.8039    4.7828   -8.3546 C.ar      1 <0>        -0.1323
      3 C3          9.9328    5.6797   -9.5922 C.ar      1 <0>        -0.1309
      4 C4         11.1077    4.9765   -7.1616 C.ar      1 <0>        -0.1275
      5 C5          9.2366    5.8734   -8.3991 C.ar      1 <0>        -0.1272
      6 C6          9.8285    5.5206   -7.1916 C.ar      1 <0>        -0.0843
      7 C7          7.4784    4.7027   -4.2310 C.2       1 <0>         0.6709
      8 C8          5.2358    2.3798    1.5634 C.2       1 <0>         0.4867
      9 C9          4.9672    2.8271    2.9706 C.2       1 <0>         0.5883
     10 C10         6.2126    3.1256   -1.7338 C.2       1 <0>         0.6572
     11 C11         0.2716    3.3826    4.3985 C.3       1 <0>        -0.0802
     12 C12         0.8842    4.4980    3.5555 C.3       1 <0>        -0.0765
     13 C13         1.2566    2.2409    4.6351 C.3       1 <0>        -0.0774
     14 C14         2.1995    4.9981    4.1541 C.3       1 <0>        -0.0953
     15 C15         2.5710    2.7464    5.2316 C.3       1 <0>        -0.0906
     16 C16         4.3868    2.9365   -3.4414 C.3       1 <0>        -0.0871
     17 C17         7.2608    4.1580   -6.6868 C.3       1 <0>        -0.0716
     18 C18         5.0537    2.0131   -4.4592 C.3       1 <0>         0.1333
     19 C19         6.0339    3.3363   -6.2552 C.3       1 <0>         0.1246
     20 C20         5.5372    3.7637   -2.9085 C.3       1 <0>         0.0606
     21 C21         3.2085    3.8688    4.4019 C.3       1 <0>         0.1012
     22 C22         8.2469    4.4948   -5.5436 C.3       1 <0>         0.1554
     23 C23         9.0796    5.7289   -5.9083 C.3       1 <0>        -0.0356
     24 C24         8.0800    4.9598    0.7851 C.3       1 <0>        -0.0795
     25 C25         8.7880    6.0338    1.6192 C.3       1 <0>        -0.1203
     26 C26         6.9719    4.2276    1.5544 C.3       1 <0>        -0.0920
     27 C27         9.9095    6.7454    0.8629 C.3       1 <0>         0.1502
     28 C28         6.2906    3.1130    0.7514 C.3       1 <0>         0.0224
     29 N1          6.4904    3.7576   -4.0019 N.am      1 <0>        -0.3553
     30 N2          6.2438    2.7368   -4.9387 N.3       1 <0>        -0.4320
     31 N3          9.1632    3.3713   -5.2994 N.3       1 <0>        -0.9031
     32 N4         10.5470    7.7366    1.7233 N.3       1 <0>        -0.9068
     33 N5          3.7009    3.3404    3.1278 N.am      1 <0>        -0.5526
     34 N6          5.7762    3.5917   -0.5046 N.am      1 <0>        -0.5576
     35 O1          7.7368    5.6223   -3.4546 O.2       1 <0>        -0.6710
     36 O2          4.5176    1.4899    1.1258 O.2       1 <0>        -0.4901
     37 O3          5.8662    2.7146    3.7879 O.2       1 <0>        -0.5902
     38 O4          7.0689    2.2691   -1.9210 O.2       1 <0>        -0.5833
     39 H1         11.7586    4.9835  -10.4989 H         1 <0>         0.1320
     40 H2         12.8034    4.3582   -8.3374 H         1 <0>         0.1324
     41 H3          9.4755    5.9533  -10.5385 H         1 <0>         0.1328
     42 H4         11.5733    4.6996   -6.2195 H         1 <0>         0.1324
     43 H5          8.2369    6.2989   -8.4262 H         1 <0>         0.1434
     44 H6         -0.0473    3.7924    5.3649 H         1 <0>         0.0405
     45 H7         -0.6275    2.9978    3.9040 H         1 <0>         0.0421
     46 H8          1.0557    4.1332    2.5355 H         1 <0>         0.0362
     47 H9          0.1762    5.3312    3.4787 H         1 <0>         0.0439
     48 H10         0.8079    1.5026    5.3094 H         1 <0>         0.0350
     49 H11         1.4534    1.7257    3.6873 H         1 <0>         0.0428
     50 H12         2.6344    5.7530    3.4879 H         1 <0>         0.0663
     51 H13         1.9865    5.4999    5.1066 H         1 <0>         0.0466
     52 H14         2.3793    3.1187    6.2461 H         1 <0>         0.0493
     53 H15         3.2690    1.9060    5.3283 H         1 <0>         0.0520
     54 H16         3.6738    3.5897   -3.9595 H         1 <0>         0.0915
     55 H17         3.8488    2.3812   -2.6670 H         1 <0>         0.0601
     56 H18         7.7933    3.6252   -7.4865 H         1 <0>         0.0688
     57 H19         6.8963    5.0889   -7.1420 H         1 <0>         0.0630
     58 H20         5.3910    1.1000   -3.9542 H         1 <0>         0.0807
     59 H21         4.3651    1.7081   -5.2548 H         1 <0>         0.0380
     60 H22         5.1498    3.9888   -6.2523 H         1 <0>         0.0484
     61 H23         5.8493    2.5563   -7.0035 H         1 <0>         0.0697
     62 H24         5.2534    4.7844   -2.6367 H         1 <0>         0.0843
     63 H25         4.0871    4.2632    4.9231 H         1 <0>         0.0831
     64 H26         9.7736    5.9418   -5.0932 H         1 <0>         0.0704
     65 H27         8.4167    6.5923   -5.9906 H         1 <0>         0.0718
     66 H28         7.6494    5.4516   -0.0948 H         1 <0>         0.0606
     67 H29         8.8216    4.2418    0.4157 H         1 <0>         0.0458
     68 H30         8.0356    6.7709    1.9287 H         1 <0>         0.0375
     69 H31         9.1825    5.5824    2.5383 H         1 <0>         0.0392
     70 H32         6.2171    4.9575    1.8728 H         1 <0>         0.0606
     71 H33         7.3929    3.7874    2.4660 H         1 <0>         0.0579
     72 H34         9.5108    7.2416   -0.0285 H         1 <0>         0.0571
     73 H35        10.6706    6.0303    0.5375 H         1 <0>         0.0503
     74 H36         7.0421    2.3587    0.4881 H         1 <0>         0.0993
     75 H37         8.8040    2.4509   -5.4050 H         1 <0>         0.3700
     76 H38        10.0264    3.5689   -4.8487 H         1 <0>         0.3660
     77 H39        11.2163    8.3531    1.3147 H         1 <0>         0.3465
     78 H40        10.4498    7.6340    2.7108 H         1 <0>         0.3446
     79 H41         3.0795    3.3535    2.3245 H         1 <0>         0.3148
     80 H42         5.0545    4.3100   -0.4888 H         1 <0>         0.3220
@<TRIPOS>BOND
     1    1    2 ar
     2    1    3 ar
     3    2    4 ar
     4    3    5 ar
     5    4    6 ar
     6    5    6 ar
     7    6   23 1
     8    7   22 1
     9    7   29 am
    10    7   35 2
    11    8    9 1
    12    8   28 1
    13    8   36 2
    14    9   33 am
    15    9   37 2
    16   10   20 1
    17   10   34 am
    18   10   38 2
    19   11   12 1
    20   11   13 1
    21   12   14 1
    22   13   15 1
    23   14   21 1
    24   15   21 1
    25   16   18 1
    26   16   20 1
    27   17   19 1
    28   17   22 1
    29   18   30 1
    30   19   30 1
    31   20   29 1
    32   21   33 1
    33   22   23 1
    34   22   31 1
    35   24   25 1
    36   24   26 1
    37   25   27 1
    38   26   28 1
    39   27   32 1
    40   28   34 1
    41   29   30 1
    42    1   39 1
    43    2   40 1
    44    3   41 1
    45    4   42 1
    46    5   43 1
    47   11   44 1
    48   11   45 1
    49   12   46 1
    50   12   47 1
    51   13   48 1
    52   13   49 1
    53   14   50 1
    54   14   51 1
    55   15   52 1
    56   15   53 1
    57   16   54 1
    58   16   55 1
    59   17   56 1
    60   17   57 1
    61   18   58 1
    62   18   59 1
    63   19   60 1
    64   19   61 1
    65   20   62 1
    66   21   63 1
    67   23   64 1
    68   23   65 1
    69   24   66 1
    70   24   67 1
    71   25   68 1
    72   25   69 1
    73   26   70 1
    74   26   71 1
    75   27   72 1
    76   27   73 1
    77   28   74 1
    78   31   75 1
    79   31   76 1
    80   32   77 1
    81   32   78 1
    82   33   79 1
    83   34   80 1
@<TRIPOS>MOLECULE
1a46_ligand_252
   80    83     0     0     0
SMALL
USER_CHARGES

mmff94s_NoEstat = 86.22
@<TRIPOS>ATOM
      1 C1         11.2307    8.4980   -6.9074 C.ar      1 <0>        -0.1300
      2 C2         11.6037    8.0134   -5.6538 C.ar      1 <0>        -0.1323
      3 C3          9.8807    8.5885   -7.2468 C.ar      1 <0>        -0.1309
      4 C4         10.6268    7.6193   -4.7395 C.ar      1 <0>        -0.1275
      5 C5          8.9038    8.1943   -6.3325 C.ar      1 <0>        -0.1272
      6 C6          9.2832    7.7123   -5.0848 C.ar      1 <0>        -0.0843
      7 C7          6.8112    5.3648   -3.2584 C.2       1 <0>         0.6709
      8 C8          5.2358    2.3798    1.5634 C.2       1 <0>         0.4867
      9 C9          4.0737    1.7586    0.8450 C.2       1 <0>         0.5883
     10 C10         5.7098    2.8119   -1.6475 C.2       1 <0>         0.6572
     11 C11        -0.5121    3.0956    2.4155 C.3       1 <0>        -0.0802
     12 C12         0.2937    1.9454    3.0136 C.3       1 <0>        -0.0765
     13 C13         0.2643    3.8282    1.3245 C.3       1 <0>        -0.0774
     14 C14         0.7942    0.9870    1.9321 C.3       1 <0>        -0.0953
     15 C15         0.7647    2.8653    0.2468 C.3       1 <0>        -0.0906
     16 C16         4.5614    2.5584   -3.8616 C.3       1 <0>        -0.0871
     17 C17         7.4096    5.5196   -5.7065 C.3       1 <0>        -0.0716
     18 C18         5.7552    2.2338   -4.7574 C.3       1 <0>         0.1333
     19 C19         6.5359    4.2626   -5.8584 C.3       1 <0>         0.1246
     20 C20         5.1372    3.5153   -2.8394 C.3       1 <0>         0.0606
     21 C21         1.5791    1.6990    0.8223 C.3       1 <0>         0.1012
     22 C22         7.8862    5.8039   -4.2626 C.3       1 <0>         0.1554
     23 C23         8.2324    7.2883   -4.1013 C.3       1 <0>        -0.0356
     24 C24         6.0158    5.3379    2.0114 C.3       1 <0>        -0.0795
     25 C25         6.7209    6.4716    2.7653 C.3       1 <0>        -0.1203
     26 C26         6.9719    4.2276    1.5544 C.3       1 <0>        -0.0920
     27 C27         5.7742    7.5909    3.1979 C.3       1 <0>         0.1502
     28 C28         6.2906    3.1130    0.7514 C.3       1 <0>         0.0224
     29 N1          6.2461    4.1312   -3.5428 N.am      1 <0>        -0.3553
     30 N2          6.6457    3.4048   -4.6800 N.3       1 <0>        -0.4320
     31 N3          9.0821    5.0103   -3.9441 N.3       1 <0>        -0.9031
     32 N4          6.5168    8.6391    3.8900 N.3       1 <0>        -0.9068
     33 N5          2.8617    2.1823    1.3384 N.am      1 <0>        -0.5526
     34 N6          5.7762    3.5917   -0.5046 N.am      1 <0>        -0.5576
     35 O1          6.4995    6.0504   -2.2848 O.2       1 <0>        -0.6710
     36 O2          5.3022    2.1819    2.7699 O.2       1 <0>        -0.4901
     37 O3          4.3127    0.9617   -0.0474 O.2       1 <0>        -0.5902
     38 O4          6.0670    1.6440   -1.7490 O.2       1 <0>        -0.5833
     39 H1         11.9913    8.8048   -7.6194 H         1 <0>         0.1320
     40 H2         12.6548    7.9430   -5.3897 H         1 <0>         0.1324
     41 H3          9.5904    8.9656   -8.2230 H         1 <0>         0.1328
     42 H4         10.9268    7.2430   -3.7651 H         1 <0>         0.1324
     43 H5          7.8545    8.2683   -6.6056 H         1 <0>         0.1434
     44 H6         -1.4460    2.7032    1.9943 H         1 <0>         0.0405
     45 H7         -0.7915    3.8008    3.2064 H         1 <0>         0.0421
     46 H8          1.1451    2.3486    3.5749 H         1 <0>         0.0362
     47 H9         -0.3271    1.3965    3.7310 H         1 <0>         0.0439
     48 H10        -0.3764    4.5904    0.8664 H         1 <0>         0.0350
     49 H11         1.1141    4.3569    1.7730 H         1 <0>         0.0428
     50 H12         1.4166    0.2128    2.3971 H         1 <0>         0.0663
     51 H13        -0.0682    0.4757    1.4858 H         1 <0>         0.0466
     52 H14        -0.0994    2.4620   -0.2964 H         1 <0>         0.0493
     53 H15         1.3663    3.4220   -0.4819 H         1 <0>         0.0520
     54 H16         3.7944    3.0721   -4.4543 H         1 <0>         0.0915
     55 H17         4.1162    1.6608   -3.4217 H         1 <0>         0.0601
     56 H18         8.2801    5.4412   -6.3721 H         1 <0>         0.0688
     57 H19         6.8297    6.3763   -6.0759 H         1 <0>         0.0630
     58 H20         6.2922    1.3700   -4.3474 H         1 <0>         0.0807
     59 H21         5.4490    1.9715   -5.7762 H         1 <0>         0.0380
     60 H22         5.4939    4.5694   -6.0242 H         1 <0>         0.0484
     61 H23         6.8523    3.7181   -6.7562 H         1 <0>         0.0697
     62 H24         4.4225    4.2667   -2.4920 H         1 <0>         0.0843
     63 H25         1.8243    0.9884    0.0260 H         1 <0>         0.0831
     64 H26         8.5747    7.4635   -3.0797 H         1 <0>         0.0704
     65 H27         7.3253    7.8806   -4.2350 H         1 <0>         0.0718
     66 H28         5.2579    4.9142    2.6804 H         1 <0>         0.0606
     67 H29         5.4809    5.7546    1.1500 H         1 <0>         0.0458
     68 H30         7.2000    6.0392    3.6534 H         1 <0>         0.0375
     69 H31         7.5258    6.8807    2.1417 H         1 <0>         0.0392
     70 H32         7.4599    3.7926    2.4354 H         1 <0>         0.0606
     71 H33         7.7645    4.6634    0.9347 H         1 <0>         0.0579
     72 H34         4.9986    7.1962    3.8630 H         1 <0>         0.0571
     73 H35         5.2784    8.0349    2.3297 H         1 <0>         0.0503
     74 H36         7.0421    2.3587    0.4881 H         1 <0>         0.0993
     75 H37         9.1461    4.0964   -4.3289 H         1 <0>         0.3700
     76 H38         9.6671    5.3316   -3.2079 H         1 <0>         0.3660
     77 H39         5.9996    9.3711    4.3277 H         1 <0>         0.3465
     78 H40         7.4997    8.7018    3.7315 H         1 <0>         0.3446
     79 H41         2.8559    2.8605    2.0944 H         1 <0>         0.3148
     80 H42         5.4441    4.5531   -0.5557 H         1 <0>         0.3220
@<TRIPOS>BOND
     1    1    2 ar
     2    1    3 ar
     3    2    4 ar
     4    3    5 ar
     5    4    6 ar
     6    5    6 ar
     7    6   23 1
     8    7   22 1
     9    7   29 am
    10    7   35 2
    11    8    9 1
    12    8   28 1
    13    8   36 2
    14    9   33 am
    15    9   37 2
    16   10   20 1
    17   10   34 am
    18   10   38 2
    19   11   12 1
    20   11   13 1
    21   12   14 1
    22   13   15 1
    23   14   21 1
    24   15   21 1
    25   16   18 1
    26   16   20 1
    27   17   19 1
    28   17   22 1
    29   18   30 1
    30   19   30 1
    31   20   29 1
    32   21   33 1
    33   22   23 1
    34   22   31 1
    35   24   25 1
    36   24   26 1
    37   25   27 1
    38   26   28 1
    39   27   32 1
    40   28   34 1
    41   29   30 1
    42    1   39 1
    43    2   40 1
    44    3   41 1
    45    4   42 1
    46    5   43 1
    47   11   44 1
    48   11   45 1
    49   12   46 1
    50   12   47 1
    51   13   48 1
    52   13   49 1
    53   14   50 1
    54   14   51 1
    55   15   52 1
    56   15   53 1
    57   16   54 1
    58   16   55 1
    59   17   56 1
    60   17   57 1
    61   18   58 1
    62   18   59 1
    63   19   60 1
    64   19   61 1
    65   20   62 1
    66   21   63 1
    67   23   64 1
    68   23   65 1
    69   24   66 1
    70   24   67 1
    71   25   68 1
    72   25   69 1
    73   26   70 1
    74   26   71 1
    75   27   72 1
    76   27   73 1
    77   28   74 1
    78   31   75 1
    79   31   76 1
    80   32   77 1
    81   32   78 1
    82   33   79 1
    83   34   80 1
@<TRIPOS>MOLECULE
1a46_ligand_253
   80    83     0     0     0
SMALL
USER_CHARGES

mmff94s_NoEstat = 86.23
@<TRIPOS>ATOM
      1 C1         -5.0984    1.0095  -15.6042 C.ar      1 <0>        -0.1300
      2 C2         -3.7796    1.4634  -15.6236 C.ar      1 <0>        -0.1323
      3 C3         -5.8613    1.1325  -14.4430 C.ar      1 <0>        -0.1309
      4 C4         -3.2237    2.0403  -14.4818 C.ar      1 <0>        -0.1275
      5 C5         -5.3054    1.7094  -13.3011 C.ar      1 <0>        -0.1272
      6 C6         -3.9903    2.1595  -13.3280 C.ar      1 <0>        -0.0843
      7 C7         -2.1082    2.3543   -9.9549 C.2       1 <0>         0.6709
      8 C8          2.7796    3.2097   -6.1637 C.2       1 <0>         0.4867
      9 C9          2.2829    2.0299   -5.3801 C.2       1 <0>         0.5883
     10 C10         0.2181    1.9581   -7.7739 C.2       1 <0>         0.6572
     11 C11         1.5348    0.3058   -0.3123 C.3       1 <0>        -0.0802
     12 C12         2.3881   -0.3689   -1.3826 C.3       1 <0>        -0.0765
     13 C13         0.3388    1.0325   -0.9209 C.3       1 <0>        -0.0774
     14 C14         2.8229    0.6200   -2.4630 C.3       1 <0>        -0.0953
     15 C15         0.7714    2.0234   -2.0002 C.3       1 <0>        -0.0906
     16 C16        -1.6037    0.5018   -6.8541 C.3       1 <0>        -0.0871
     17 C17        -3.7434    0.6334  -10.8151 C.3       1 <0>        -0.0716
     18 C18        -1.6334   -0.6036   -7.9078 C.3       1 <0>         0.1333
     19 C19        -3.3867   -0.1439   -9.5363 C.3       1 <0>         0.1246
     20 C20        -1.2590    1.7411   -7.6524 C.3       1 <0>         0.0606
     21 C21         1.6178    1.3392   -3.0792 C.3       1 <0>         0.1012
     22 C22        -2.7218    1.7245  -11.2134 C.3       1 <0>         0.1554
     23 C23        -3.3923    2.7801  -12.0997 C.3       1 <0>        -0.0356
     24 C24         1.5857    6.0302   -6.5865 C.3       1 <0>        -0.0795
     25 C25         1.6811    7.5259   -6.9095 C.3       1 <0>        -0.1203
     26 C26         2.1570    5.1335   -7.6933 C.3       1 <0>        -0.0920
     27 C27         1.0885    8.4192   -5.8200 C.3       1 <0>         0.1502
     28 C28         2.0196    3.6328   -7.4097 C.3       1 <0>         0.0224
     29 N1         -1.7541    1.4338   -8.9807 N.am      1 <0>        -0.3553
     30 N2         -1.9849    0.0592   -9.1756 N.3       1 <0>        -0.4320
     31 N3         -1.5982    1.1378  -11.9581 N.3       1 <0>        -0.9031
     32 N4          1.1980    9.8225   -6.2046 N.3       1 <0>        -0.9068
     33 N5          2.0747    2.3281   -4.0537 N.am      1 <0>        -0.5526
     34 N6          0.6426    3.2153   -7.3763 N.am      1 <0>        -0.5576
     35 O1         -1.9389    3.5681   -9.8411 O.2       1 <0>        -0.6710
     36 O2          3.8302    3.7133   -5.7870 O.2       1 <0>        -0.4901
     37 O3          2.1422    0.9706   -5.9690 O.2       1 <0>        -0.5902
     38 O4          0.9290    1.0536   -8.1959 O.2       1 <0>        -0.5833
     39 H1         -5.5312    0.5602  -16.4933 H         1 <0>         0.1320
     40 H2         -3.1856    1.3675  -16.5278 H         1 <0>         0.1324
     41 H3         -6.8881    0.7789  -14.4280 H         1 <0>         0.1328
     42 H4         -2.1954    2.3911  -14.5062 H         1 <0>         0.1324
     43 H5         -5.9074    1.8011  -12.4009 H         1 <0>         0.1434
     44 H6          1.1843   -0.4434    0.4064 H         1 <0>         0.0405
     45 H7          2.1503    1.0218    0.2461 H         1 <0>         0.0421
     46 H8          3.2725   -0.8200   -0.9187 H         1 <0>         0.0362
     47 H9          1.8179   -1.1845   -1.8441 H         1 <0>         0.0439
     48 H10        -0.3523    0.2996   -1.3552 H         1 <0>         0.0350
     49 H11        -0.2102    1.5617   -0.1338 H         1 <0>         0.0428
     50 H12         3.5155    1.3530   -2.0286 H         1 <0>         0.0663
     51 H13         3.3820    0.0898   -3.2435 H         1 <0>         0.0466
     52 H14        -0.1151    2.4823   -2.4547 H         1 <0>         0.0493
     53 H15         1.3414    2.8401   -1.5379 H         1 <0>         0.0520
     54 H16        -2.6044    0.6122   -6.4185 H         1 <0>         0.0915
     55 H17        -0.8961    0.2875   -6.0474 H         1 <0>         0.0601
     56 H18        -3.8703   -0.0725  -11.6472 H         1 <0>         0.0688
     57 H19        -4.7294    1.0931  -10.6627 H         1 <0>         0.0630
     58 H20        -0.6289   -1.0307   -8.0140 H         1 <0>         0.0807
     59 H21        -2.3061   -1.4224   -7.6298 H         1 <0>         0.0380
     60 H22        -4.0515    0.1805   -8.7237 H         1 <0>         0.0484
     61 H23        -3.5864   -1.2093   -9.7025 H         1 <0>         0.0697
     62 H24        -1.7157    2.6547   -7.2615 H         1 <0>         0.0843
     63 H25         1.0021    0.6222   -3.6345 H         1 <0>         0.0831
     64 H26        -2.6520    3.5331  -12.3759 H         1 <0>         0.0704
     65 H27        -4.1617    3.2932  -11.5198 H         1 <0>         0.0718
     66 H28         2.1358    5.8550   -5.6547 H         1 <0>         0.0606
     67 H29         0.5392    5.7688   -6.3906 H         1 <0>         0.0458
     68 H30         2.7419    7.7748   -7.0444 H         1 <0>         0.0375
     69 H31         1.1870    7.7255   -7.8687 H         1 <0>         0.0392
     70 H32         3.2164    5.3787   -7.8393 H         1 <0>         0.0606
     71 H33         1.6466    5.3535   -8.6384 H         1 <0>         0.0579
     72 H34         1.6137    8.2608   -4.8719 H         1 <0>         0.0571
     73 H35         0.0315    8.1861   -5.6617 H         1 <0>         0.0503
     74 H36         2.4714    3.0747   -8.2388 H         1 <0>         0.0993
     75 H37        -1.2936    0.2294  -11.6949 H         1 <0>         0.3700
     76 H38        -1.0669    1.7403  -12.5430 H         1 <0>         0.3660
     77 H39         0.9557   10.5154   -5.5293 H         1 <0>         0.3465
     78 H40         1.3102   10.0373   -7.1723 H         1 <0>         0.3446
     79 H41         2.2460    3.2779   -3.7372 H         1 <0>         0.3148
     80 H42        -0.0552    3.8781   -7.0434 H         1 <0>         0.3220
@<TRIPOS>BOND
     1    1    2 ar
     2    1    3 ar
     3    2    4 ar
     4    3    5 ar
     5    4    6 ar
     6    5    6 ar
     7    6   23 1
     8    7   22 1
     9    7   29 am
    10    7   35 2
    11    8    9 1
    12    8   28 1
    13    8   36 2
    14    9   33 am
    15    9   37 2
    16   10   20 1
    17   10   34 am
    18   10   38 2
    19   11   12 1
    20   11   13 1
    21   12   14 1
    22   13   15 1
    23   14   21 1
    24   15   21 1
    25   16   18 1
    26   16   20 1
    27   17   19 1
    28   17   22 1
    29   18   30 1
    30   19   30 1
    31   20   29 1
    32   21   33 1
    33   22   23 1
    34   22   31 1
    35   24   25 1
    36   24   26 1
    37   25   27 1
    38   26   28 1
    39   27   32 1
    40   28   34 1
    41   29   30 1
    42    1   39 1
    43    2   40 1
    44    3   41 1
    45    4   42 1
    46    5   43 1
    47   11   44 1
    48   11   45 1
    49   12   46 1
    50   12   47 1
    51   13   48 1
    52   13   49 1
    53   14   50 1
    54   14   51 1
    55   15   52 1
    56   15   53 1
    57   16   54 1
    58   16   55 1
    59   17   56 1
    60   17   57 1
    61   18   58 1
    62   18   59 1
    63   19   60 1
    64   19   61 1
    65   20   62 1
    66   21   63 1
    67   23   64 1
    68   23   65 1
    69   24   66 1
    70   24   67 1
    71   25   68 1
    72   25   69 1
    73   26   70 1
    74   26   71 1
    75   27   72 1
    76   27   73 1
    77   28   74 1
    78   31   75 1
    79   31   76 1
    80   32   77 1
    81   32   78 1
    82   33   79 1
    83   34   80 1
@<TRIPOS>MOLECULE
1a46_ligand_254
   80    83     0     0     0
SMALL
USER_CHARGES

mmff94s_NoEstat = 86.23
@<TRIPOS>ATOM
      1 C1          9.0003   12.0144   -5.4225 C.ar      1 <0>        -0.1300
      2 C2          9.4537   11.5665   -4.1818 C.ar      1 <0>        -0.1323
      3 C3          7.8120   11.5127   -5.9535 C.ar      1 <0>        -0.1309
      4 C4          8.7189   10.6167   -3.4722 C.ar      1 <0>        -0.1275
      5 C5          7.0772   10.5629   -5.2439 C.ar      1 <0>        -0.1272
      6 C6          7.5355   10.1211   -4.0078 C.ar      1 <0>        -0.0843
      7 C7          6.3757    6.6257   -2.8269 C.2       1 <0>         0.6709
      8 C8          5.2358    2.3798    1.5634 C.2       1 <0>         0.4867
      9 C9          5.6457    1.7076    2.8411 C.2       1 <0>         0.5883
     10 C10         6.5256    3.6321   -1.6689 C.2       1 <0>         0.6572
     11 C11         7.2205    4.5846    6.5343 C.3       1 <0>        -0.0802
     12 C12         7.9988    3.7938    5.4859 C.3       1 <0>        -0.0765
     13 C13         5.7119    4.4466    6.3477 C.3       1 <0>        -0.0774
     14 C14         7.5631    2.3284    5.4485 C.3       1 <0>        -0.0953
     15 C15         5.2816    2.9796    6.3086 C.3       1 <0>        -0.0906
     16 C16         5.8400    3.2307   -4.0468 C.3       1 <0>        -0.0871
     17 C17         7.0291    7.4385   -5.1265 C.3       1 <0>        -0.0716
     18 C18         7.1120    3.6562   -4.7776 C.3       1 <0>         0.1333
     19 C19         6.8955    5.9616   -5.5361 C.3       1 <0>         0.1246
     20 C20         5.7868    4.1659   -2.8575 C.3       1 <0>         0.0606
     21 C21         6.0492    2.1618    5.2613 C.3       1 <0>         0.1012
     22 C22         7.1815    7.6752   -3.6055 C.3       1 <0>         0.1554
     23 C23         6.7451    9.0995   -3.2444 C.3       1 <0>        -0.0356
     24 C24         6.0158    5.3379    2.0114 C.3       1 <0>        -0.0795
     25 C25         6.7209    6.4716    2.7653 C.3       1 <0>        -0.1203
     26 C26         6.9719    4.2276    1.5544 C.3       1 <0>        -0.0920
     27 C27         5.7742    7.5909    3.1979 C.3       1 <0>         0.1502
     28 C28         6.2906    3.1130    0.7514 C.3       1 <0>         0.0224
     29 N1          6.5101    5.3360   -3.3173 N.am      1 <0>        -0.3553
     30 N2          7.3084    5.0783   -4.4472 N.3       1 <0>        -0.4320
     31 N3          8.5804    7.4980   -3.1893 N.3       1 <0>        -0.9031
     32 N4          6.5168    8.6391    3.8900 N.3       1 <0>        -0.9068
     33 N5          5.6572    2.5717    3.9111 N.am      1 <0>        -0.5526
     34 N6          5.7762    3.5917   -0.5046 N.am      1 <0>        -0.5576
     35 O1          5.6876    6.9159   -1.8485 O.2       1 <0>        -0.6710
     36 O2          4.0412    2.3628    1.2952 O.2       1 <0>        -0.4901
     37 O3          5.9343    0.5229    2.7970 O.2       1 <0>        -0.5902
     38 O4          7.6924    3.2783   -1.7917 O.2       1 <0>        -0.5833
     39 H1          9.5724   12.7539   -5.9752 H         1 <0>         0.1320
     40 H2         10.3789   11.9573   -3.7685 H         1 <0>         0.1324
     41 H3          7.4591   11.8615   -6.9197 H         1 <0>         0.1328
     42 H4          9.0800   10.2736   -2.5062 H         1 <0>         0.1324
     43 H5          6.1526   10.1776   -5.6655 H         1 <0>         0.1434
     44 H6          7.4960    4.2286    7.5348 H         1 <0>         0.0405
     45 H7          7.5034    5.6421    6.4838 H         1 <0>         0.0421
     46 H8          7.8510    4.2501    4.4997 H         1 <0>         0.0362
     47 H9          9.0714    3.8519    5.7040 H         1 <0>         0.0439
     48 H10         5.1924    4.9595    7.1652 H         1 <0>         0.0350
     49 H11         5.4113    4.9461    5.4188 H         1 <0>         0.0428
     50 H12         8.1017    1.8131    4.6439 H         1 <0>         0.0663
     51 H13         7.8603    1.8469    6.3888 H         1 <0>         0.0466
     52 H14         5.4476    2.5355    7.2984 H         1 <0>         0.0493
     53 H15         4.2038    2.9258    6.1130 H         1 <0>         0.0520
     54 H16         4.9736    3.4114   -4.6951 H         1 <0>         0.0915
     55 H17         5.8531    2.1713   -3.7729 H         1 <0>         0.0601
     56 H18         7.8805    7.8879   -5.6555 H         1 <0>         0.0688
     57 H19         6.1391    7.9685   -5.4921 H         1 <0>         0.0630
     58 H20         7.9647    3.0932   -4.3794 H         1 <0>         0.0807
     59 H21         7.0607    3.4497   -5.8523 H         1 <0>         0.0380
     60 H22         5.8545    5.7643   -5.8276 H         1 <0>         0.0484
     61 H23         7.5124    5.7838   -6.4252 H         1 <0>         0.0697
     62 H24         4.7698    4.4250   -2.5496 H         1 <0>         0.0843
     63 H25         5.7787    1.1040    5.3446 H         1 <0>         0.0831
     64 H26         6.8700    9.2469   -2.1701 H         1 <0>         0.0704
     65 H27         5.6795    9.2080   -3.4549 H         1 <0>         0.0718
     66 H28         5.2579    4.9142    2.6804 H         1 <0>         0.0606
     67 H29         5.4809    5.7546    1.1500 H         1 <0>         0.0458
     68 H30         7.2000    6.0392    3.6534 H         1 <0>         0.0375
     69 H31         7.5258    6.8807    2.1417 H         1 <0>         0.0392
     70 H32         7.4599    3.7926    2.4354 H         1 <0>         0.0606
     71 H33         7.7645    4.6634    0.9347 H         1 <0>         0.0579
     72 H34         4.9986    7.1962    3.8630 H         1 <0>         0.0571
     73 H35         5.2784    8.0349    2.3297 H         1 <0>         0.0503
     74 H36         7.0421    2.3587    0.4881 H         1 <0>         0.0993
     75 H37         9.1142    6.7979   -3.6499 H         1 <0>         0.3700
     76 H38         8.8693    7.9327   -2.3437 H         1 <0>         0.3660
     77 H39         5.9996    9.3711    4.3277 H         1 <0>         0.3465
     78 H40         7.4997    8.7018    3.7315 H         1 <0>         0.3446
     79 H41         5.3815    3.5372    3.7580 H         1 <0>         0.3148
     80 H42         4.8120    3.9176   -0.5391 H         1 <0>         0.3220
@<TRIPOS>BOND
     1    1    2 ar
     2    1    3 ar
     3    2    4 ar
     4    3    5 ar
     5    4    6 ar
     6    5    6 ar
     7    6   23 1
     8    7   22 1
     9    7   29 am
    10    7   35 2
    11    8    9 1
    12    8   28 1
    13    8   36 2
    14    9   33 am
    15    9   37 2
    16   10   20 1
    17   10   34 am
    18   10   38 2
    19   11   12 1
    20   11   13 1
    21   12   14 1
    22   13   15 1
    23   14   21 1
    24   15   21 1
    25   16   18 1
    26   16   20 1
    27   17   19 1
    28   17   22 1
    29   18   30 1
    30   19   30 1
    31   20   29 1
    32   21   33 1
    33   22   23 1
    34   22   31 1
    35   24   25 1
    36   24   26 1
    37   25   27 1
    38   26   28 1
    39   27   32 1
    40   28   34 1
    41   29   30 1
    42    1   39 1
    43    2   40 1
    44    3   41 1
    45    4   42 1
    46    5   43 1
    47   11   44 1
    48   11   45 1
    49   12   46 1
    50   12   47 1
    51   13   48 1
    52   13   49 1
    53   14   50 1
    54   14   51 1
    55   15   52 1
    56   15   53 1
    57   16   54 1
    58   16   55 1
    59   17   56 1
    60   17   57 1
    61   18   58 1
    62   18   59 1
    63   19   60 1
    64   19   61 1
    65   20   62 1
    66   21   63 1
    67   23   64 1
    68   23   65 1
    69   24   66 1
    70   24   67 1
    71   25   68 1
    72   25   69 1
    73   26   70 1
    74   26   71 1
    75   27   72 1
    76   27   73 1
    77   28   74 1
    78   31   75 1
    79   31   76 1
    80   32   77 1
    81   32   78 1
    82   33   79 1
    83   34   80 1
@<TRIPOS>MOLECULE
1a46_ligand_255
   80    83     0     0     0
SMALL
USER_CHARGES

mmff94s_NoEstat = 86.24
@<TRIPOS>ATOM
      1 C1         -4.2961    6.3604   -2.7495 C.ar      1 <0>        -0.1300
      2 C2         -3.8917    5.7888   -1.5431 C.ar      1 <0>        -0.1323
      3 C3         -3.4839    6.2539   -3.8786 C.ar      1 <0>        -0.1309
      4 C4         -2.6752    5.1109   -1.4657 C.ar      1 <0>        -0.1275
      5 C5         -2.2674    5.5759   -3.8012 C.ar      1 <0>        -0.1272
      6 C6         -1.8709    5.0088   -2.5952 C.ar      1 <0>        -0.0843
      7 C7          1.9202    4.4855   -2.0375 C.2       1 <0>         0.6709
      8 C8          5.2358    2.3798    1.5634 C.2       1 <0>         0.4867
      9 C9          4.0737    1.7586    0.8450 C.2       1 <0>         0.5883
     10 C10         4.7954    4.5647   -0.6048 C.2       1 <0>         0.6572
     11 C11         4.8597   -2.3625   -1.7617 C.3       1 <0>        -0.0802
     12 C12         5.2794   -1.0401   -2.3982 C.3       1 <0>        -0.0765
     13 C13         4.2715   -2.1623   -0.3676 C.3       1 <0>        -0.0774
     14 C14         4.1312   -0.0301   -2.4063 C.3       1 <0>        -0.0953
     15 C15         3.1253   -1.1498   -0.3806 C.3       1 <0>        -0.0906
     16 C16         5.1345    6.1376   -2.5274 C.3       1 <0>        -0.0871
     17 C17         0.6797    6.3873   -3.1418 C.3       1 <0>        -0.0716
     18 C18         4.2227    7.2889   -2.1078 C.3       1 <0>         0.1333
     19 C19         2.0578    7.0682   -3.2043 C.3       1 <0>         0.1246
     20 C20         4.4137    4.9104   -2.0113 C.3       1 <0>         0.0606
     21 C21         3.5216    0.1899   -1.0153 C.3       1 <0>         0.1012
     22 C22         0.5786    5.2268   -2.1241 C.3       1 <0>         0.1554
     23 C23        -0.5623    4.2796   -2.5120 C.3       1 <0>        -0.0356
     24 C24         7.6485    3.7409    2.8432 C.3       1 <0>        -0.0795
     25 C25         8.2774    4.8743    3.6620 C.3       1 <0>        -0.1203
     26 C26         6.9719    4.2276    1.5544 C.3       1 <0>        -0.0920
     27 C27         8.9284    4.3945    4.9589 C.3       1 <0>         0.1502
     28 C28         6.2906    3.1130    0.7514 C.3       1 <0>         0.0224
     29 N1          3.0235    5.3233   -1.9852 N.am      1 <0>        -0.3553
     30 N2          2.8653    6.7208   -2.0365 N.3       1 <0>        -0.4320
     31 N3          0.3159    5.7420   -0.7724 N.3       1 <0>        -0.9031
     32 N4          9.4866    5.5266    5.6910 N.3       1 <0>        -0.9068
     33 N5          4.4695    0.8988   -0.1529 N.am      1 <0>        -0.5526
     34 N6          5.7762    3.5917   -0.5046 N.am      1 <0>        -0.5576
     35 O1          1.9934    3.2573   -2.0040 O.2       1 <0>        -0.6710
     36 O2          5.3022    2.1819    2.7699 O.2       1 <0>        -0.4901
     37 O3          2.9489    2.0822    1.1900 O.2       1 <0>        -0.5902
     38 O4          4.2448    5.1367    0.3286 O.2       1 <0>        -0.5833
     39 H1         -5.2433    6.8883   -2.8098 H         1 <0>         0.1320
     40 H2         -4.5242    5.8718   -0.6641 H         1 <0>         0.1324
     41 H3         -3.7988    6.6991   -4.8178 H         1 <0>         0.1328
     42 H4         -2.3683    4.6687   -0.5215 H         1 <0>         0.1324
     43 H5         -1.6411    5.4981   -4.6860 H         1 <0>         0.1434
     44 H6          4.1159   -2.8528   -2.4019 H         1 <0>         0.0405
     45 H7          5.7231   -3.0350   -1.7048 H         1 <0>         0.0421
     46 H8          6.1342   -0.6256   -1.8502 H         1 <0>         0.0362
     47 H9          5.6182   -1.2183   -3.4252 H         1 <0>         0.0439
     48 H10         3.9090   -3.1215    0.0193 H         1 <0>         0.0350
     49 H11         5.0588   -1.8223    0.3160 H         1 <0>         0.0428
     50 H12         4.4917    0.9217   -2.8150 H         1 <0>         0.0663
     51 H13         3.3477   -0.3907   -3.0849 H         1 <0>         0.0466
     52 H14         2.2839   -1.5748   -0.9427 H         1 <0>         0.0493
     53 H15         2.7736   -0.9912    0.6460 H         1 <0>         0.0520
     54 H16         5.1868    6.0993   -3.6226 H         1 <0>         0.0915
     55 H17         6.1502    6.2483   -2.1355 H         1 <0>         0.0601
     56 H18        -0.0889    7.1398   -2.9187 H         1 <0>         0.0688
     57 H19         0.4458    6.0134   -4.1479 H         1 <0>         0.0630
     58 H20         4.5037    7.6265   -1.1030 H         1 <0>         0.0807
     59 H21         4.3115    8.1522   -2.7765 H         1 <0>         0.0380
     60 H22         2.5627    6.7687   -4.1331 H         1 <0>         0.0484
     61 H23         1.9139    8.1541   -3.2580 H         1 <0>         0.0697
     62 H24         4.5519    4.0254   -2.6387 H         1 <0>         0.0843
     63 H25         2.6430    0.8387   -1.0930 H         1 <0>         0.0831
     64 H26        -0.6211    3.4755   -1.7762 H         1 <0>         0.0704
     65 H27        -0.3254    3.8127   -3.4698 H         1 <0>         0.0718
     66 H28         8.4445    3.0306    2.5915 H         1 <0>         0.0606
     67 H29         6.9275    3.2007    3.4679 H         1 <0>         0.0458
     68 H30         9.0354    5.3625    3.0356 H         1 <0>         0.0375
     69 H31         7.5157    5.6329    3.8824 H         1 <0>         0.0392
     70 H32         7.7210    4.7221    0.9235 H         1 <0>         0.0606
     71 H33         6.2174    4.9831    1.8035 H         1 <0>         0.0579
     72 H34         9.7251    3.6753    4.7403 H         1 <0>         0.0571
     73 H35         8.1937    3.8977    5.5994 H         1 <0>         0.0503
     74 H36         7.0421    2.3587    0.4881 H         1 <0>         0.0993
     75 H37         0.7364    6.6054   -0.5173 H         1 <0>         0.3700
     76 H38        -0.0926    5.1211   -0.1128 H         1 <0>         0.3660
     77 H39        10.0430    5.3371    6.4969 H         1 <0>         0.3465
     78 H40         9.1331    6.4373    5.4892 H         1 <0>         0.3446
     79 H41         5.4635    0.7487   -0.2981 H         1 <0>         0.3148
     80 H42         6.1527    3.1949   -1.3636 H         1 <0>         0.3220
@<TRIPOS>BOND
     1    1    2 ar
     2    1    3 ar
     3    2    4 ar
     4    3    5 ar
     5    4    6 ar
     6    5    6 ar
     7    6   23 1
     8    7   22 1
     9    7   29 am
    10    7   35 2
    11    8    9 1
    12    8   28 1
    13    8   36 2
    14    9   33 am
    15    9   37 2
    16   10   20 1
    17   10   34 am
    18   10   38 2
    19   11   12 1
    20   11   13 1
    21   12   14 1
    22   13   15 1
    23   14   21 1
    24   15   21 1
    25   16   18 1
    26   16   20 1
    27   17   19 1
    28   17   22 1
    29   18   30 1
    30   19   30 1
    31   20   29 1
    32   21   33 1
    33   22   23 1
    34   22   31 1
    35   24   25 1
    36   24   26 1
    37   25   27 1
    38   26   28 1
    39   27   32 1
    40   28   34 1
    41   29   30 1
    42    1   39 1
    43    2   40 1
    44    3   41 1
    45    4   42 1
    46    5   43 1
    47   11   44 1
    48   11   45 1
    49   12   46 1
    50   12   47 1
    51   13   48 1
    52   13   49 1
    53   14   50 1
    54   14   51 1
    55   15   52 1
    56   15   53 1
    57   16   54 1
    58   16   55 1
    59   17   56 1
    60   17   57 1
    61   18   58 1
    62   18   59 1
    63   19   60 1
    64   19   61 1
    65   20   62 1
    66   21   63 1
    67   23   64 1
    68   23   65 1
    69   24   66 1
    70   24   67 1
    71   25   68 1
    72   25   69 1
    73   26   70 1
    74   26   71 1
    75   27   72 1
    76   27   73 1
    77   28   74 1
    78   31   75 1
    79   31   76 1
    80   32   77 1
    81   32   78 1
    82   33   79 1
    83   34   80 1
@<TRIPOS>MOLECULE
1a46_ligand_256
   80    83     0     0     0
SMALL
USER_CHARGES

mmff94s_NoEstat = 86.28
@<TRIPOS>ATOM
      1 C1          5.4266   13.4365   -3.4169 C.ar      1 <0>        -0.1300
      2 C2          5.8751   12.9626   -2.1841 C.ar      1 <0>        -0.1323
      3 C3          4.6702   12.6105   -4.2484 C.ar      1 <0>        -0.1309
      4 C4          5.5674   11.6626   -1.7828 C.ar      1 <0>        -0.1275
      5 C5          4.3625   11.3105   -3.8471 C.ar      1 <0>        -0.1272
      6 C6          4.8131   10.8451   -2.6169 C.ar      1 <0>        -0.0843
      7 C7          5.2227    7.0215   -2.2038 C.2       1 <0>         0.6709
      8 C8          5.2358    2.3798    1.5634 C.2       1 <0>         0.4867
      9 C9          5.3950    2.3039    3.0538 C.2       1 <0>         0.5883
     10 C10         6.5648    4.1956   -1.4701 C.2       1 <0>         0.6572
     11 C11         9.8151    1.0691    4.8799 C.3       1 <0>        -0.0802
     12 C12         8.9381   -0.0596    4.3444 C.3       1 <0>        -0.0765
     13 C13         9.1469    2.4326    4.7241 C.3       1 <0>        -0.0774
     14 C14         7.5441   -0.0356    4.9728 C.3       1 <0>        -0.0953
     15 C15         7.7525    2.4508    5.3519 C.3       1 <0>        -0.0906
     16 C16         6.4370    4.0713   -3.9709 C.3       1 <0>        -0.0871
     17 C17         5.7185    8.5126   -4.1803 C.3       1 <0>        -0.0716
     18 C18         7.4589    5.1398   -4.3541 C.3       1 <0>         0.1333
     19 C19         6.3195    7.2447   -4.8112 C.3       1 <0>         0.1246
     20 C20         5.8189    4.6139   -2.6998 C.3       1 <0>         0.0606
     21 C21         6.8497    1.3253    4.8295 C.3       1 <0>         0.1012
     22 C22         5.5566    8.4542   -2.6431 C.3       1 <0>         0.1554
     23 C23         4.4821    9.4467   -2.1852 C.3       1 <0>        -0.0356
     24 C24         6.0158    5.3379    2.0114 C.3       1 <0>        -0.0795
     25 C25         6.7209    6.4716    2.7653 C.3       1 <0>        -0.1203
     26 C26         6.9719    4.2276    1.5544 C.3       1 <0>        -0.0920
     27 C27         7.4119    6.0077    4.0472 C.3       1 <0>         0.1502
     28 C28         6.2906    3.1130    0.7514 C.3       1 <0>         0.0224
     29 N1          5.9858    6.0487   -2.8308 N.am      1 <0>        -0.3553
     30 N2          6.9481    6.4032   -3.7946 N.3       1 <0>        -0.4320
     31 N3          6.8203    8.7957   -1.9738 N.3       1 <0>        -0.9031
     32 N4          8.0424    7.1400    4.7175 N.3       1 <0>        -0.9068
     33 N5          6.4949    1.5685    3.4295 N.am      1 <0>        -0.5526
     34 N6          5.7762    3.5917   -0.5046 N.am      1 <0>        -0.5576
     35 O1          4.3619    6.7750   -1.3592 O.2       1 <0>        -0.6710
     36 O2          4.2060    1.9080    1.0985 O.2       1 <0>        -0.4901
     37 O3          4.5583    2.8586    3.7473 O.2       1 <0>        -0.5902
     38 O4          7.7705    4.4014   -1.3956 O.2       1 <0>        -0.5833
     39 H1          5.6663   14.4486   -3.7294 H         1 <0>         0.1320
     40 H2          6.4640   13.6058   -1.5368 H         1 <0>         0.1324
     41 H3          4.3212   12.9796   -5.2084 H         1 <0>         0.1328
     42 H4          5.9211   11.3020   -0.8206 H         1 <0>         0.1324
     43 H5          3.7727   10.6741   -4.5015 H         1 <0>         0.1434
     44 H6         10.0291    0.8896    5.9408 H         1 <0>         0.0405
     45 H7         10.7780    1.0682    4.3566 H         1 <0>         0.0421
     46 H8          8.8552    0.0275    3.2543 H         1 <0>         0.0362
     47 H9          9.4160   -1.0245    4.5493 H         1 <0>         0.0439
     48 H10         9.7701    3.2027    5.1927 H         1 <0>         0.0350
     49 H11         9.0775    2.6860    3.6593 H         1 <0>         0.0428
     50 H12         6.9302   -0.8221    4.5174 H         1 <0>         0.0663
     51 H13         7.6325   -0.2791    6.0392 H         1 <0>         0.0466
     52 H14         7.8529    2.3503    6.4402 H         1 <0>         0.0493
     53 H15         7.2863    3.4257    5.1647 H         1 <0>         0.0520
     54 H16         5.6709    4.0073   -4.7535 H         1 <0>         0.0915
     55 H17         6.8936    3.0840   -3.8511 H         1 <0>         0.0601
     56 H18         6.3330    9.3815   -4.4524 H         1 <0>         0.0688
     57 H19         4.7383    8.6848   -4.6454 H         1 <0>         0.0630
     58 H20         8.4170    4.9158   -3.8698 H         1 <0>         0.0807
     59 H21         7.6408    5.1703   -5.4340 H         1 <0>         0.0380
     60 H22         5.5257    6.6966   -5.3375 H         1 <0>         0.0484
     61 H23         7.0554    7.5409   -5.5683 H         1 <0>         0.0697
     62 H24         4.7652    4.3476   -2.5772 H         1 <0>         0.0843
     63 H25         5.9045    1.3202    5.3824 H         1 <0>         0.0831
     64 H26         4.3919    9.3954   -1.0986 H         1 <0>         0.0704
     65 H27         3.5182    9.1401   -2.5956 H         1 <0>         0.0718
     66 H28         5.2579    4.9142    2.6804 H         1 <0>         0.0606
     67 H29         5.4809    5.7546    1.1500 H         1 <0>         0.0458
     68 H30         7.4668    6.9122    2.0910 H         1 <0>         0.0375
     69 H31         5.9973    7.2642    2.9945 H         1 <0>         0.0392
     70 H32         7.4599    3.7926    2.4354 H         1 <0>         0.0606
     71 H33         7.7645    4.6634    0.9347 H         1 <0>         0.0579
     72 H34         8.1719    5.2532    3.8170 H         1 <0>         0.0571
     73 H35         6.6895    5.5581    4.7347 H         1 <0>         0.0503
     74 H36         7.0421    2.3587    0.4881 H         1 <0>         0.0993
     75 H37         7.6658    8.5036   -2.4065 H         1 <0>         0.3700
     76 H38         6.7736    9.1160   -1.0343 H         1 <0>         0.3660
     77 H39         8.6273    6.9547    5.5039 H         1 <0>         0.3465
     78 H40         7.7128    8.0567    4.5024 H         1 <0>         0.3446
     79 H41         7.0876    1.1766    2.7037 H         1 <0>         0.3148
     80 H42         4.7816    3.4809   -0.6931 H         1 <0>         0.3220
@<TRIPOS>BOND
     1    1    2 ar
     2    1    3 ar
     3    2    4 ar
     4    3    5 ar
     5    4    6 ar
     6    5    6 ar
     7    6   23 1
     8    7   22 1
     9    7   29 am
    10    7   35 2
    11    8    9 1
    12    8   28 1
    13    8   36 2
    14    9   33 am
    15    9   37 2
    16   10   20 1
    17   10   34 am
    18   10   38 2
    19   11   12 1
    20   11   13 1
    21   12   14 1
    22   13   15 1
    23   14   21 1
    24   15   21 1
    25   16   18 1
    26   16   20 1
    27   17   19 1
    28   17   22 1
    29   18   30 1
    30   19   30 1
    31   20   29 1
    32   21   33 1
    33   22   23 1
    34   22   31 1
    35   24   25 1
    36   24   26 1
    37   25   27 1
    38   26   28 1
    39   27   32 1
    40   28   34 1
    41   29   30 1
    42    1   39 1
    43    2   40 1
    44    3   41 1
    45    4   42 1
    46    5   43 1
    47   11   44 1
    48   11   45 1
    49   12   46 1
    50   12   47 1
    51   13   48 1
    52   13   49 1
    53   14   50 1
    54   14   51 1
    55   15   52 1
    56   15   53 1
    57   16   54 1
    58   16   55 1
    59   17   56 1
    60   17   57 1
    61   18   58 1
    62   18   59 1
    63   19   60 1
    64   19   61 1
    65   20   62 1
    66   21   63 1
    67   23   64 1
    68   23   65 1
    69   24   66 1
    70   24   67 1
    71   25   68 1
    72   25   69 1
    73   26   70 1
    74   26   71 1
    75   27   72 1
    76   27   73 1
    77   28   74 1
    78   31   75 1
    79   31   76 1
    80   32   77 1
    81   32   78 1
    82   33   79 1
    83   34   80 1
@<TRIPOS>MOLECULE
1a46_ligand_257
   80    83     0     0     0
SMALL
USER_CHARGES

mmff94s_NoEstat = 86.28
@<TRIPOS>ATOM
      1 C1         -4.4072   -3.0319  -14.4211 C.ar      1 <0>        -0.1300
      2 C2         -3.1014   -2.5683  -14.5810 C.ar      1 <0>        -0.1323
      3 C3         -5.2666   -2.3997  -13.5224 C.ar      1 <0>        -0.1309
      4 C4         -2.6549   -1.4727  -13.8421 C.ar      1 <0>        -0.1275
      5 C5         -4.8200   -1.3041  -12.7835 C.ar      1 <0>        -0.1272
      6 C6         -3.5171   -0.8478  -12.9482 C.ar      1 <0>        -0.0843
      7 C7         -1.9267    1.0916  -10.0042 C.2       1 <0>         0.6709
      8 C8          2.7796    3.2097   -6.1637 C.2       1 <0>         0.4867
      9 C9          2.2829    2.0299   -5.3801 C.2       1 <0>         0.5883
     10 C10         0.2181    1.9581   -7.7739 C.2       1 <0>         0.6572
     11 C11         3.2185   -3.2319   -4.5719 C.3       1 <0>        -0.0802
     12 C12         1.9125   -2.6071   -5.0544 C.3       1 <0>        -0.0765
     13 C13         3.9756   -2.2986   -3.6313 C.3       1 <0>        -0.0774
     14 C14         2.1440   -1.2372   -5.6898 C.3       1 <0>        -0.0953
     15 C15         4.2100   -0.9286   -4.2655 C.3       1 <0>        -0.0906
     16 C16        -1.6423    1.0361   -6.3687 C.3       1 <0>        -0.0871
     17 C17        -3.4475   -0.9240   -9.9997 C.3       1 <0>        -0.0716
     18 C18        -1.5606   -0.4439   -6.7372 C.3       1 <0>         0.1333
     19 C19        -3.1819   -0.9495   -8.4846 C.3       1 <0>         0.1246
     20 C20        -1.2590    1.7411   -7.6524 C.3       1 <0>         0.0606
     21 C21         2.8945   -0.2997   -4.7376 C.3       1 <0>         0.1012
     22 C22        -2.4199   -0.1108  -10.8216 C.3       1 <0>         0.1554
     23 C23        -3.0368    0.3307  -12.1535 C.3       1 <0>        -0.0356
     24 C24         1.4445    5.5921   -8.9731 C.3       1 <0>        -0.0795
     25 C25         1.6370    7.0835   -9.2718 C.3       1 <0>        -0.1203
     26 C26         2.1570    5.1335   -7.6933 C.3       1 <0>        -0.0920
     27 C27         0.9502    7.5360  -10.5601 C.3       1 <0>         0.1502
     28 C28         2.0196    3.6328   -7.4097 C.3       1 <0>         0.0224
     29 N1         -1.6352    0.7917   -8.6825 N.am      1 <0>        -0.3553
     30 N2         -1.8196   -0.5121   -8.1858 N.3       1 <0>        -0.4320
     31 N3         -1.2259   -0.9195  -11.1076 N.3       1 <0>        -0.9031
     32 N4          1.1922    8.9569  -10.7874 N.3       1 <0>        -0.9068
     33 N5          3.1633    0.9734   -5.4035 N.am      1 <0>        -0.5526
     34 N6          0.6426    3.2153   -7.3763 N.am      1 <0>        -0.5576
     35 O1         -1.7935    2.2123  -10.4955 O.2       1 <0>        -0.6710
     36 O2          3.8302    3.7133   -5.7870 O.2       1 <0>        -0.4901
     37 O3          1.1896    2.1176   -4.8457 O.2       1 <0>        -0.5902
     38 O4          0.9290    1.0536   -8.1959 O.2       1 <0>        -0.5833
     39 H1         -4.7549   -3.8850  -14.9963 H         1 <0>         0.1320
     40 H2         -2.4324   -3.0606  -15.2808 H         1 <0>         0.1324
     41 H3         -6.2832   -2.7609  -13.3979 H         1 <0>         0.1328
     42 H4         -1.6358   -1.1186  -13.9733 H         1 <0>         0.1324
     43 H5         -5.4966   -0.8180  -12.0857 H         1 <0>         0.1434
     44 H6          3.0081   -4.1784   -4.0615 H         1 <0>         0.0405
     45 H7          3.8504   -3.4681   -5.4369 H         1 <0>         0.0421
     46 H8          1.4312   -3.2730   -5.7795 H         1 <0>         0.0362
     47 H9          1.2223   -2.5037   -4.2080 H         1 <0>         0.0439
     48 H10         3.4072   -2.1769   -2.7010 H         1 <0>         0.0350
     49 H11         4.9375   -2.7488   -3.3612 H         1 <0>         0.0428
     50 H12         2.7120   -1.3591   -6.6216 H         1 <0>         0.0663
     51 H13         1.1806   -0.7939   -5.9698 H         1 <0>         0.0466
     52 H14         4.7025   -0.2678   -3.5418 H         1 <0>         0.0493
     53 H15         4.9015   -1.0323   -5.1121 H         1 <0>         0.0520
     54 H16        -2.6779    1.2865   -6.1074 H         1 <0>         0.0915
     55 H17        -0.9998    1.2887   -5.5196 H         1 <0>         0.0601
     56 H18        -3.4897   -1.9539  -10.3797 H         1 <0>         0.0688
     57 H19        -4.4523   -0.5086  -10.1558 H         1 <0>         0.0630
     58 H20        -0.5419   -0.8072   -6.5560 H         1 <0>         0.0807
     59 H21        -2.2364   -1.0589   -6.1327 H         1 <0>         0.0380
     60 H22        -3.9187   -0.3080   -7.9817 H         1 <0>         0.0484
     61 H23        -3.3442   -1.9688   -8.1140 H         1 <0>         0.0697
     62 H24        -1.7661    2.6997   -7.7936 H         1 <0>         0.0843
     63 H25         2.2632   -0.0666   -3.8723 H         1 <0>         0.0831
     64 H26        -2.2923    0.8934  -12.7197 H         1 <0>         0.0704
     65 H27        -3.8625    1.0157  -11.9521 H         1 <0>         0.0718
     66 H28         0.3683    5.4079   -8.8774 H         1 <0>         0.0606
     67 H29         1.7918    5.0040   -9.8306 H         1 <0>         0.0458
     68 H30         1.2300    7.6523   -8.4256 H         1 <0>         0.0375
     69 H31         2.7093    7.3123   -9.3176 H         1 <0>         0.0392
     70 H32         1.7604    5.7005   -6.8419 H         1 <0>         0.0606
     71 H33         3.2243    5.3739   -7.7660 H         1 <0>         0.0579
     72 H34        -0.1287    7.3572  -10.4981 H         1 <0>         0.0571
     73 H35         1.3345    6.9786  -11.4193 H         1 <0>         0.0503
     74 H36         2.4714    3.0747   -8.2388 H         1 <0>         0.0993
     75 H37        -0.9249   -1.5612  -10.4112 H         1 <0>         0.3700
     76 H38        -0.6609   -0.6518  -11.8799 H         1 <0>         0.3660
     77 H39         0.7014    9.4044  -11.5317 H         1 <0>         0.3465
     78 H40         1.9755    9.3785  -10.3359 H         1 <0>         0.3446
     79 H41         4.0392    1.0827   -5.9058 H         1 <0>         0.3148
     80 H42        -0.0552    3.8781   -7.0434 H         1 <0>         0.3220
@<TRIPOS>BOND
     1    1    2 ar
     2    1    3 ar
     3    2    4 ar
     4    3    5 ar
     5    4    6 ar
     6    5    6 ar
     7    6   23 1
     8    7   22 1
     9    7   29 am
    10    7   35 2
    11    8    9 1
    12    8   28 1
    13    8   36 2
    14    9   33 am
    15    9   37 2
    16   10   20 1
    17   10   34 am
    18   10   38 2
    19   11   12 1
    20   11   13 1
    21   12   14 1
    22   13   15 1
    23   14   21 1
    24   15   21 1
    25   16   18 1
    26   16   20 1
    27   17   19 1
    28   17   22 1
    29   18   30 1
    30   19   30 1
    31   20   29 1
    32   21   33 1
    33   22   23 1
    34   22   31 1
    35   24   25 1
    36   24   26 1
    37   25   27 1
    38   26   28 1
    39   27   32 1
    40   28   34 1
    41   29   30 1
    42    1   39 1
    43    2   40 1
    44    3   41 1
    45    4   42 1
    46    5   43 1
    47   11   44 1
    48   11   45 1
    49   12   46 1
    50   12   47 1
    51   13   48 1
    52   13   49 1
    53   14   50 1
    54   14   51 1
    55   15   52 1
    56   15   53 1
    57   16   54 1
    58   16   55 1
    59   17   56 1
    60   17   57 1
    61   18   58 1
    62   18   59 1
    63   19   60 1
    64   19   61 1
    65   20   62 1
    66   21   63 1
    67   23   64 1
    68   23   65 1
    69   24   66 1
    70   24   67 1
    71   25   68 1
    72   25   69 1
    73   26   70 1
    74   26   71 1
    75   27   72 1
    76   27   73 1
    77   28   74 1
    78   31   75 1
    79   31   76 1
    80   32   77 1
    81   32   78 1
    82   33   79 1
    83   34   80 1
@<TRIPOS>MOLECULE
1a46_ligand_258
   80    83     0     0     0
SMALL
USER_CHARGES

mmff94s_NoEstat = 86.31
@<TRIPOS>ATOM
      1 C1         11.2307    8.4980   -6.9074 C.ar      1 <0>        -0.1300
      2 C2         11.6037    8.0134   -5.6538 C.ar      1 <0>        -0.1323
      3 C3          9.8807    8.5885   -7.2468 C.ar      1 <0>        -0.1309
      4 C4         10.6268    7.6193   -4.7395 C.ar      1 <0>        -0.1275
      5 C5          8.9038    8.1943   -6.3325 C.ar      1 <0>        -0.1272
      6 C6          9.2832    7.7123   -5.0848 C.ar      1 <0>        -0.0843
      7 C7          6.8112    5.3648   -3.2584 C.2       1 <0>         0.6709
      8 C8          5.2358    2.3798    1.5634 C.2       1 <0>         0.4867
      9 C9          4.0737    1.7586    0.8450 C.2       1 <0>         0.5883
     10 C10         5.7098    2.8119   -1.6475 C.2       1 <0>         0.6572
     11 C11         0.2012    4.6526   -0.1678 C.3       1 <0>        -0.0802
     12 C12         0.4391    3.6711    0.9767 C.3       1 <0>        -0.0765
     13 C13         1.3995    4.7302   -1.1100 C.3       1 <0>        -0.0774
     14 C14         0.8443    2.2904    0.4589 C.3       1 <0>        -0.0953
     15 C15         1.8022    3.3469   -1.6232 C.3       1 <0>        -0.0906
     16 C16         4.5614    2.5584   -3.8616 C.3       1 <0>        -0.0871
     17 C17         7.4096    5.5196   -5.7065 C.3       1 <0>        -0.0716
     18 C18         5.7552    2.2338   -4.7574 C.3       1 <0>         0.1333
     19 C19         6.5359    4.2626   -5.8584 C.3       1 <0>         0.1246
     20 C20         5.1372    3.5153   -2.8394 C.3       1 <0>         0.0606
     21 C21         2.0482    2.3405   -0.4913 C.3       1 <0>         0.1012
     22 C22         7.8862    5.8039   -4.2626 C.3       1 <0>         0.1554
     23 C23         8.2324    7.2883   -4.1013 C.3       1 <0>        -0.0356
     24 C24         8.0800    4.9598    0.7851 C.3       1 <0>        -0.0795
     25 C25         8.7880    6.0338    1.6192 C.3       1 <0>        -0.1203
     26 C26         6.9719    4.2276    1.5544 C.3       1 <0>        -0.0920
     27 C27         9.9095    6.7454    0.8629 C.3       1 <0>         0.1502
     28 C28         6.2906    3.1130    0.7514 C.3       1 <0>         0.0224
     29 N1          6.2461    4.1312   -3.5428 N.am      1 <0>        -0.3553
     30 N2          6.6457    3.4048   -4.6800 N.3       1 <0>        -0.4320
     31 N3          9.0821    5.0103   -3.9441 N.3       1 <0>        -0.9031
     32 N4         10.5470    7.7366    1.7233 N.3       1 <0>        -0.9068
     33 N5          3.2624    2.6947    0.2471 N.am      1 <0>        -0.5526
     34 N6          5.7762    3.5917   -0.5046 N.am      1 <0>        -0.5576
     35 O1          6.4995    6.0504   -2.2848 O.2       1 <0>        -0.6710
     36 O2          5.3022    2.1819    2.7699 O.2       1 <0>        -0.4901
     37 O3          3.9613    0.5442    0.8821 O.2       1 <0>        -0.5902
     38 O4          6.0670    1.6440   -1.7490 O.2       1 <0>        -0.5833
     39 H1         11.9913    8.8048   -7.6194 H         1 <0>         0.1320
     40 H2         12.6548    7.9430   -5.3897 H         1 <0>         0.1324
     41 H3          9.5904    8.9656   -8.2230 H         1 <0>         0.1328
     42 H4         10.9268    7.2430   -3.7651 H         1 <0>         0.1324
     43 H5          7.8545    8.2683   -6.6056 H         1 <0>         0.1434
     44 H6         -0.6854    4.3410   -0.7340 H         1 <0>         0.0405
     45 H7         -0.0141    5.6475    0.2381 H         1 <0>         0.0421
     46 H8          1.2209    4.0633    1.6382 H         1 <0>         0.0362
     47 H9         -0.4716    3.5834    1.5804 H         1 <0>         0.0439
     48 H10         1.1578    5.3802   -1.9587 H         1 <0>         0.0350
     49 H11         2.2457    5.1928   -0.5878 H         1 <0>         0.0428
     50 H12         1.0636    1.6361    1.3114 H         1 <0>         0.0663
     51 H13        -0.0085    1.8469   -0.0707 H         1 <0>         0.0466
     52 H14         1.0045    2.9642   -2.2726 H         1 <0>         0.0493
     53 H15         2.7004    3.4415   -2.2455 H         1 <0>         0.0520
     54 H16         3.7944    3.0721   -4.4543 H         1 <0>         0.0915
     55 H17         4.1162    1.6608   -3.4217 H         1 <0>         0.0601
     56 H18         8.2801    5.4412   -6.3721 H         1 <0>         0.0688
     57 H19         6.8297    6.3763   -6.0759 H         1 <0>         0.0630
     58 H20         6.2922    1.3700   -4.3474 H         1 <0>         0.0807
     59 H21         5.4490    1.9715   -5.7762 H         1 <0>         0.0380
     60 H22         5.4939    4.5694   -6.0242 H         1 <0>         0.0484
     61 H23         6.8523    3.7181   -6.7562 H         1 <0>         0.0697
     62 H24         4.4225    4.2667   -2.4920 H         1 <0>         0.0843
     63 H25         2.2315    1.3461   -0.9116 H         1 <0>         0.0831
     64 H26         8.5747    7.4635   -3.0797 H         1 <0>         0.0704
     65 H27         7.3253    7.8806   -4.2350 H         1 <0>         0.0718
     66 H28         7.6494    5.4516   -0.0948 H         1 <0>         0.0606
     67 H29         8.8216    4.2418    0.4157 H         1 <0>         0.0458
     68 H30         8.0356    6.7709    1.9287 H         1 <0>         0.0375
     69 H31         9.1825    5.5824    2.5383 H         1 <0>         0.0392
     70 H32         6.2171    4.9575    1.8728 H         1 <0>         0.0606
     71 H33         7.3929    3.7874    2.4660 H         1 <0>         0.0579
     72 H34         9.5108    7.2416   -0.0285 H         1 <0>         0.0571
     73 H35        10.6706    6.0303    0.5375 H         1 <0>         0.0503
     74 H36         7.0421    2.3587    0.4881 H         1 <0>         0.0993
     75 H37         9.1461    4.0964   -4.3289 H         1 <0>         0.3700
     76 H38         9.6671    5.3316   -3.2079 H         1 <0>         0.3660
     77 H39        11.2163    8.3531    1.3147 H         1 <0>         0.3465
     78 H40        10.4498    7.6340    2.7108 H         1 <0>         0.3446
     79 H41         3.5167    3.6752    0.3209 H         1 <0>         0.3148
     80 H42         5.4441    4.5531   -0.5557 H         1 <0>         0.3220
@<TRIPOS>BOND
     1    1    2 ar
     2    1    3 ar
     3    2    4 ar
     4    3    5 ar
     5    4    6 ar
     6    5    6 ar
     7    6   23 1
     8    7   22 1
     9    7   29 am
    10    7   35 2
    11    8    9 1
    12    8   28 1
    13    8   36 2
    14    9   33 am
    15    9   37 2
    16   10   20 1
    17   10   34 am
    18   10   38 2
    19   11   12 1
    20   11   13 1
    21   12   14 1
    22   13   15 1
    23   14   21 1
    24   15   21 1
    25   16   18 1
    26   16   20 1
    27   17   19 1
    28   17   22 1
    29   18   30 1
    30   19   30 1
    31   20   29 1
    32   21   33 1
    33   22   23 1
    34   22   31 1
    35   24   25 1
    36   24   26 1
    37   25   27 1
    38   26   28 1
    39   27   32 1
    40   28   34 1
    41   29   30 1
    42    1   39 1
    43    2   40 1
    44    3   41 1
    45    4   42 1
    46    5   43 1
    47   11   44 1
    48   11   45 1
    49   12   46 1
    50   12   47 1
    51   13   48 1
    52   13   49 1
    53   14   50 1
    54   14   51 1
    55   15   52 1
    56   15   53 1
    57   16   54 1
    58   16   55 1
    59   17   56 1
    60   17   57 1
    61   18   58 1
    62   18   59 1
    63   19   60 1
    64   19   61 1
    65   20   62 1
    66   21   63 1
    67   23   64 1
    68   23   65 1
    69   24   66 1
    70   24   67 1
    71   25   68 1
    72   25   69 1
    73   26   70 1
    74   26   71 1
    75   27   72 1
    76   27   73 1
    77   28   74 1
    78   31   75 1
    79   31   76 1
    80   32   77 1
    81   32   78 1
    82   33   79 1
    83   34   80 1
@<TRIPOS>MOLECULE
1a46_ligand_259
   80    83     0     0     0
SMALL
USER_CHARGES

mmff94s_NoEstat = 86.38
@<TRIPOS>ATOM
      1 C1         -5.9518    1.0529  -15.7574 C.ar      1 <0>        -0.1300
      2 C2         -4.7078    1.6646  -15.9115 C.ar      1 <0>        -0.1323
      3 C3         -6.6077    1.1063  -14.5275 C.ar      1 <0>        -0.1309
      4 C4         -4.1196    2.3297  -14.8357 C.ar      1 <0>        -0.1275
      5 C5         -6.0195    1.7714  -13.4517 C.ar      1 <0>        -0.1272
      6 C6         -4.7793    2.3787  -13.6128 C.ar      1 <0>        -0.0843
      7 C7         -2.6173    2.8751  -10.4447 C.2       1 <0>         0.6709
      8 C8          2.7796    3.2097   -6.1637 C.2       1 <0>         0.4867
      9 C9          2.0233    2.5606   -5.0416 C.2       1 <0>         0.5883
     10 C10        -0.0591    2.8141   -8.5012 C.2       1 <0>         0.6572
     11 C11         0.4928    3.3165    0.0869 C.3       1 <0>        -0.0802
     12 C12         1.8763    2.6943   -0.0795 C.3       1 <0>        -0.0765
     13 C13        -0.4186    2.9867   -1.0919 C.3       1 <0>        -0.0774
     14 C14         2.5152    3.0886   -1.4101 C.3       1 <0>        -0.0953
     15 C15         0.2175    3.3821   -2.4235 C.3       1 <0>        -0.0906
     16 C16        -1.5879    1.1654   -7.3921 C.3       1 <0>        -0.0871
     17 C17        -4.1019    0.9486  -11.1228 C.3       1 <0>        -0.0716
     18 C18        -1.5823    0.0424   -8.4274 C.3       1 <0>         0.1333
     19 C19        -3.5290    0.2485   -9.8784 C.3       1 <0>         0.1246
     20 C20        -1.4789    2.4202   -8.2321 C.3       1 <0>         0.0606
     21 C21         1.6014    2.7453   -2.5917 C.3       1 <0>         0.1012
     22 C22        -3.2673    2.1480  -11.6303 C.3       1 <0>         0.1554
     23 C23        -4.1466    3.0941  -12.4556 C.3       1 <0>        -0.0356
     24 C24         3.6080    5.6033   -7.8654 C.3       1 <0>        -0.0795
     25 C25         3.7321    7.1143   -8.0937 C.3       1 <0>        -0.1203
     26 C26         2.1570    5.1335   -7.6933 C.3       1 <0>        -0.0920
     27 C27         5.1782    7.5875   -8.2387 C.3       1 <0>         0.1502
     28 C28         2.0196    3.6328   -7.4097 C.3       1 <0>         0.0224
     29 N1         -2.0587    2.0261   -9.5019 N.am      1 <0>        -0.3553
     30 N2         -2.1349    0.6298   -9.6602 N.3       1 <0>        -0.4320
     31 N3         -2.1572    1.6877  -12.4773 N.3       1 <0>        -0.9031
     32 N4          5.2178    9.0330   -8.4337 N.3       1 <0>        -0.9068
     33 N5          2.2102    3.2024   -3.8395 N.am      1 <0>        -0.5526
     34 N6          0.6426    3.2153   -7.3763 N.am      1 <0>        -0.5576
     35 O1         -2.5899    4.1027  -10.3594 O.2       1 <0>        -0.6710
     36 O2          3.9949    3.2835   -6.0334 O.2       1 <0>        -0.4901
     37 O3          1.3678    1.5632   -5.2954 O.2       1 <0>        -0.5902
     38 O4          0.3766    2.7593   -9.6452 O.2       1 <0>        -0.5833
     39 H1         -6.4098    0.5350  -16.5951 H         1 <0>         0.1320
     40 H2         -4.1972    1.6230  -16.8692 H         1 <0>         0.1324
     41 H3         -7.5763    0.6298  -14.4076 H         1 <0>         0.1328
     42 H4         -3.1501    2.8034  -14.9651 H         1 <0>         0.1324
     43 H5         -6.5379    1.8077  -12.4972 H         1 <0>         0.1434
     44 H6          0.0368    2.9585    1.0168 H         1 <0>         0.0405
     45 H7          0.5918    4.4053    0.1772 H         1 <0>         0.0421
     46 H8          2.5234    3.0081    0.7472 H         1 <0>         0.0362
     47 H9          1.7946    1.6018   -0.0247 H         1 <0>         0.0439
     48 H10        -0.6357    1.9115   -1.0969 H         1 <0>         0.0350
     49 H11        -1.3767    3.5054   -0.9731 H         1 <0>         0.0428
     50 H12         2.7335    4.1647   -1.4047 H         1 <0>         0.0663
     51 H13         3.4791    2.5773   -1.5212 H         1 <0>         0.0466
     52 H14        -0.4376    3.0776   -3.2487 H         1 <0>         0.0493
     53 H15         0.2984    4.4757   -2.4784 H         1 <0>         0.0520
     54 H16        -2.5475    1.1615   -6.8606 H         1 <0>         0.0915
     55 H17        -0.7842    1.0569   -6.6575 H         1 <0>         0.0601
     56 H18        -4.2204    0.2148  -11.9317 H         1 <0>         0.0688
     57 H19        -5.1178    1.2870  -10.8778 H         1 <0>         0.0630
     58 H20        -0.5477   -0.2605   -8.6286 H         1 <0>         0.0807
     59 H21        -2.1179   -0.8467   -8.0766 H         1 <0>         0.0380
     60 H22        -4.1468    0.5063   -9.0071 H         1 <0>         0.0484
     61 H23        -3.6100   -0.8367  -10.0142 H         1 <0>         0.0697
     62 H24        -2.0054    3.2790   -7.8063 H         1 <0>         0.0843
     63 H25         1.5010    1.6573   -2.6792 H         1 <0>         0.0831
     64 H26        -3.5359    3.9262  -12.8108 H         1 <0>         0.0704
     65 H27        -4.9137    3.5213  -11.8072 H         1 <0>         0.0718
     66 H28         4.0550    5.0981   -8.7294 H         1 <0>         0.0606
     67 H29         4.2035    5.3200   -6.9896 H         1 <0>         0.0458
     68 H30         3.1762    7.3642   -9.0068 H         1 <0>         0.0375
     69 H31         3.2423    7.6502   -7.2709 H         1 <0>         0.0392
     70 H32         1.5916    5.3838   -8.5996 H         1 <0>         0.0606
     71 H33         1.6928    5.6841   -6.8667 H         1 <0>         0.0579
     72 H34         5.6557    7.0931   -9.0916 H         1 <0>         0.0571
     73 H35         5.7562    7.3441   -7.3424 H         1 <0>         0.0503
     74 H36         2.4714    3.0747   -8.2388 H         1 <0>         0.0993
     75 H37        -1.7180    0.8294  -12.2371 H         1 <0>         0.3700
     76 H38        -1.7642    2.3382  -13.1175 H         1 <0>         0.3660
     77 H39         6.0938    9.4532   -8.6597 H         1 <0>         0.3465
     78 H40         4.4297    9.5689   -8.1390 H         1 <0>         0.3446
     79 H41         2.7974    4.0308   -3.8179 H         1 <0>         0.3148
     80 H42         0.1596    3.2148   -6.4798 H         1 <0>         0.3220
@<TRIPOS>BOND
     1    1    2 ar
     2    1    3 ar
     3    2    4 ar
     4    3    5 ar
     5    4    6 ar
     6    5    6 ar
     7    6   23 1
     8    7   22 1
     9    7   29 am
    10    7   35 2
    11    8    9 1
    12    8   28 1
    13    8   36 2
    14    9   33 am
    15    9   37 2
    16   10   20 1
    17   10   34 am
    18   10   38 2
    19   11   12 1
    20   11   13 1
    21   12   14 1
    22   13   15 1
    23   14   21 1
    24   15   21 1
    25   16   18 1
    26   16   20 1
    27   17   19 1
    28   17   22 1
    29   18   30 1
    30   19   30 1
    31   20   29 1
    32   21   33 1
    33   22   23 1
    34   22   31 1
    35   24   25 1
    36   24   26 1
    37   25   27 1
    38   26   28 1
    39   27   32 1
    40   28   34 1
    41   29   30 1
    42    1   39 1
    43    2   40 1
    44    3   41 1
    45    4   42 1
    46    5   43 1
    47   11   44 1
    48   11   45 1
    49   12   46 1
    50   12   47 1
    51   13   48 1
    52   13   49 1
    53   14   50 1
    54   14   51 1
    55   15   52 1
    56   15   53 1
    57   16   54 1
    58   16   55 1
    59   17   56 1
    60   17   57 1
    61   18   58 1
    62   18   59 1
    63   19   60 1
    64   19   61 1
    65   20   62 1
    66   21   63 1
    67   23   64 1
    68   23   65 1
    69   24   66 1
    70   24   67 1
    71   25   68 1
    72   25   69 1
    73   26   70 1
    74   26   71 1
    75   27   72 1
    76   27   73 1
    77   28   74 1
    78   31   75 1
    79   31   76 1
    80   32   77 1
    81   32   78 1
    82   33   79 1
    83   34   80 1
@<TRIPOS>MOLECULE
1a46_ligand_260
   80    83     0     0     0
SMALL
USER_CHARGES

mmff94s_NoEstat = 86.43
@<TRIPOS>ATOM
      1 C1          9.0003   12.0144   -5.4225 C.ar      1 <0>        -0.1300
      2 C2          9.4537   11.5665   -4.1818 C.ar      1 <0>        -0.1323
      3 C3          7.8120   11.5127   -5.9535 C.ar      1 <0>        -0.1309
      4 C4          8.7189   10.6167   -3.4722 C.ar      1 <0>        -0.1275
      5 C5          7.0772   10.5629   -5.2439 C.ar      1 <0>        -0.1272
      6 C6          7.5355   10.1211   -4.0078 C.ar      1 <0>        -0.0843
      7 C7          6.3757    6.6257   -2.8269 C.2       1 <0>         0.6709
      8 C8          5.2358    2.3798    1.5634 C.2       1 <0>         0.4867
      9 C9          4.0737    1.7586    0.8450 C.2       1 <0>         0.5883
     10 C10         6.5256    3.6321   -1.6689 C.2       1 <0>         0.6572
     11 C11        -0.1850    3.7169    0.9160 C.3       1 <0>        -0.0802
     12 C12         0.4665    2.4698    1.5078 C.3       1 <0>        -0.0765
     13 C13         0.7790    4.4942    0.0236 C.3       1 <0>        -0.0774
     14 C14         1.0741    1.5825    0.4205 C.3       1 <0>        -0.0953
     15 C15         1.3856    3.6021   -1.0605 C.3       1 <0>        -0.0906
     16 C16         5.8400    3.2307   -4.0468 C.3       1 <0>        -0.0871
     17 C17         7.0291    7.4385   -5.1265 C.3       1 <0>        -0.0716
     18 C18         7.1120    3.6562   -4.7776 C.3       1 <0>         0.1333
     19 C19         6.8955    5.9616   -5.5361 C.3       1 <0>         0.1246
     20 C20         5.7868    4.1659   -2.8575 C.3       1 <0>         0.0606
     21 C21         2.0482    2.3405   -0.4913 C.3       1 <0>         0.1012
     22 C22         7.1815    7.6752   -3.6055 C.3       1 <0>         0.1554
     23 C23         6.7451    9.0995   -3.2444 C.3       1 <0>        -0.0356
     24 C24         6.0158    5.3379    2.0114 C.3       1 <0>        -0.0795
     25 C25         6.7209    6.4716    2.7653 C.3       1 <0>        -0.1203
     26 C26         6.9719    4.2276    1.5544 C.3       1 <0>        -0.0920
     27 C27         5.7742    7.5909    3.1979 C.3       1 <0>         0.1502
     28 C28         6.2906    3.1130    0.7514 C.3       1 <0>         0.0224
     29 N1          6.5101    5.3360   -3.3173 N.am      1 <0>        -0.3553
     30 N2          7.3084    5.0783   -4.4472 N.3       1 <0>        -0.4320
     31 N3          8.5804    7.4980   -3.1893 N.3       1 <0>        -0.9031
     32 N4          6.5168    8.6391    3.8900 N.3       1 <0>        -0.9068
     33 N5          3.2624    2.6947    0.2471 N.am      1 <0>        -0.5526
     34 N6          5.7762    3.5917   -0.5046 N.am      1 <0>        -0.5576
     35 O1          5.6876    6.9159   -1.8485 O.2       1 <0>        -0.6710
     36 O2          5.3022    2.1819    2.7699 O.2       1 <0>        -0.4901
     37 O3          3.9613    0.5442    0.8821 O.2       1 <0>        -0.5902
     38 O4          7.6924    3.2783   -1.7917 O.2       1 <0>        -0.5833
     39 H1          9.5724   12.7539   -5.9752 H         1 <0>         0.1320
     40 H2         10.3789   11.9573   -3.7685 H         1 <0>         0.1324
     41 H3          7.4591   11.8615   -6.9197 H         1 <0>         0.1328
     42 H4          9.0800   10.2736   -2.5062 H         1 <0>         0.1324
     43 H5          6.1526   10.1776   -5.6655 H         1 <0>         0.1434
     44 H6         -1.0644    3.4228    0.3297 H         1 <0>         0.0405
     45 H7         -0.5434    4.3646    1.7240 H         1 <0>         0.0421
     46 H8          1.2443    2.7673    2.2215 H         1 <0>         0.0362
     47 H9         -0.2794    1.8988    2.0725 H         1 <0>         0.0439
     48 H10         0.2509    5.3327   -0.4446 H         1 <0>         0.0350
     49 H11         1.5779    4.9265    0.6380 H         1 <0>         0.0428
     50 H12         1.5824    0.7325    0.8918 H         1 <0>         0.0663
     51 H13         0.2633    1.1680   -0.1919 H         1 <0>         0.0466
     52 H14         0.5926    3.3037   -1.7580 H         1 <0>         0.0493
     53 H15         2.1147    4.1830   -1.6381 H         1 <0>         0.0520
     54 H16         4.9736    3.4114   -4.6951 H         1 <0>         0.0915
     55 H17         5.8531    2.1713   -3.7729 H         1 <0>         0.0601
     56 H18         7.8805    7.8879   -5.6555 H         1 <0>         0.0688
     57 H19         6.1391    7.9685   -5.4921 H         1 <0>         0.0630
     58 H20         7.9647    3.0932   -4.3794 H         1 <0>         0.0807
     59 H21         7.0607    3.4497   -5.8523 H         1 <0>         0.0380
     60 H22         5.8545    5.7643   -5.8276 H         1 <0>         0.0484
     61 H23         7.5124    5.7838   -6.4252 H         1 <0>         0.0697
     62 H24         4.7698    4.4250   -2.5496 H         1 <0>         0.0843
     63 H25         2.3735    1.6900   -1.3099 H         1 <0>         0.0831
     64 H26         6.8700    9.2469   -2.1701 H         1 <0>         0.0704
     65 H27         5.6795    9.2080   -3.4549 H         1 <0>         0.0718
     66 H28         5.2579    4.9142    2.6804 H         1 <0>         0.0606
     67 H29         5.4809    5.7546    1.1500 H         1 <0>         0.0458
     68 H30         7.2000    6.0392    3.6534 H         1 <0>         0.0375
     69 H31         7.5258    6.8807    2.1417 H         1 <0>         0.0392
     70 H32         7.4599    3.7926    2.4354 H         1 <0>         0.0606
     71 H33         7.7645    4.6634    0.9347 H         1 <0>         0.0579
     72 H34         4.9986    7.1962    3.8630 H         1 <0>         0.0571
     73 H35         5.2784    8.0349    2.3297 H         1 <0>         0.0503
     74 H36         7.0421    2.3587    0.4881 H         1 <0>         0.0993
     75 H37         9.1142    6.7979   -3.6499 H         1 <0>         0.3700
     76 H38         8.8693    7.9327   -2.3437 H         1 <0>         0.3660
     77 H39         5.9996    9.3711    4.3277 H         1 <0>         0.3465
     78 H40         7.4997    8.7018    3.7315 H         1 <0>         0.3446
     79 H41         3.5167    3.6752    0.3209 H         1 <0>         0.3148
     80 H42         4.8120    3.9176   -0.5391 H         1 <0>         0.3220
@<TRIPOS>BOND
     1    1    2 ar
     2    1    3 ar
     3    2    4 ar
     4    3    5 ar
     5    4    6 ar
     6    5    6 ar
     7    6   23 1
     8    7   22 1
     9    7   29 am
    10    7   35 2
    11    8    9 1
    12    8   28 1
    13    8   36 2
    14    9   33 am
    15    9   37 2
    16   10   20 1
    17   10   34 am
    18   10   38 2
    19   11   12 1
    20   11   13 1
    21   12   14 1
    22   13   15 1
    23   14   21 1
    24   15   21 1
    25   16   18 1
    26   16   20 1
    27   17   19 1
    28   17   22 1
    29   18   30 1
    30   19   30 1
    31   20   29 1
    32   21   33 1
    33   22   23 1
    34   22   31 1
    35   24   25 1
    36   24   26 1
    37   25   27 1
    38   26   28 1
    39   27   32 1
    40   28   34 1
    41   29   30 1
    42    1   39 1
    43    2   40 1
    44    3   41 1
    45    4   42 1
    46    5   43 1
    47   11   44 1
    48   11   45 1
    49   12   46 1
    50   12   47 1
    51   13   48 1
    52   13   49 1
    53   14   50 1
    54   14   51 1
    55   15   52 1
    56   15   53 1
    57   16   54 1
    58   16   55 1
    59   17   56 1
    60   17   57 1
    61   18   58 1
    62   18   59 1
    63   19   60 1
    64   19   61 1
    65   20   62 1
    66   21   63 1
    67   23   64 1
    68   23   65 1
    69   24   66 1
    70   24   67 1
    71   25   68 1
    72   25   69 1
    73   26   70 1
    74   26   71 1
    75   27   72 1
    76   27   73 1
    77   28   74 1
    78   31   75 1
    79   31   76 1
    80   32   77 1
    81   32   78 1
    82   33   79 1
    83   34   80 1
@<TRIPOS>MOLECULE
1a46_ligand_261
   80    83     0     0     0
SMALL
USER_CHARGES

mmff94s_NoEstat = 86.43
@<TRIPOS>ATOM
      1 C1         -6.3098    5.0766  -14.7059 C.ar      1 <0>        -0.1300
      2 C2         -4.9866    5.5178  -14.7011 C.ar      1 <0>        -0.1323
      3 C3         -6.8931    4.6085  -13.5284 C.ar      1 <0>        -0.1309
      4 C4         -4.2467    5.4909  -13.5190 C.ar      1 <0>        -0.1275
      5 C5         -6.1532    4.5816  -12.3463 C.ar      1 <0>        -0.1272
      6 C6         -4.8348    5.0229  -12.3493 C.ar      1 <0>        -0.0843
      7 C7         -2.4853    3.6254   -9.6135 C.2       1 <0>         0.6709
      8 C8          2.7796    3.2097   -6.1637 C.2       1 <0>         0.4867
      9 C9          2.2829    2.0299   -5.3801 C.2       1 <0>         0.5883
     10 C10         0.1051    2.2921   -8.2580 C.2       1 <0>         0.6572
     11 C11        -2.1182    0.0637   -2.9350 C.3       1 <0>        -0.0802
     12 C12        -1.2651    0.9841   -2.0667 C.3       1 <0>        -0.0765
     13 C13        -1.2822   -0.6402   -4.0001 C.3       1 <0>        -0.0774
     14 C14        -0.4755    1.9830   -2.9108 C.3       1 <0>        -0.0953
     15 C15        -0.4933    0.3571   -4.8469 C.3       1 <0>        -0.0906
     16 C16        -1.6364    0.5270   -7.8871 C.3       1 <0>        -0.0871
     17 C17        -4.3081    2.4860  -10.9382 C.3       1 <0>        -0.0716
     18 C18        -1.8694    0.0615   -9.3231 C.3       1 <0>         0.1333
     19 C19        -3.8118    1.2004  -10.2545 C.3       1 <0>         0.1246
     20 C20        -1.3485    2.0056   -8.0379 C.3       1 <0>         0.0606
     21 C21         0.3712    1.2712   -3.9717 C.3       1 <0>         0.1012
     22 C22        -3.3015    3.6603  -10.9133 C.3       1 <0>         0.1554
     23 C23        -4.0388    4.9940  -11.0778 C.3       1 <0>        -0.0356
     24 C24         1.4445    5.5921   -8.9731 C.3       1 <0>        -0.0795
     25 C25         1.6370    7.0835   -9.2718 C.3       1 <0>        -0.1203
     26 C26         2.1570    5.1335   -7.6933 C.3       1 <0>        -0.0920
     27 C27         0.9502    7.5360  -10.5601 C.3       1 <0>         0.1502
     28 C28         2.0196    3.6328   -7.4097 C.3       1 <0>         0.0224
     29 N1         -2.0417    2.3600   -9.2617 N.am      1 <0>        -0.3553
     30 N2         -2.3647    1.2416  -10.0526 N.3       1 <0>        -0.4320
     31 N3         -2.3251    3.5312  -12.0049 N.3       1 <0>        -0.9031
     32 N4          1.1922    8.9569  -10.7874 N.3       1 <0>        -0.9068
     33 N5          1.0538    2.2579   -4.8066 N.am      1 <0>        -0.5526
     34 N6          0.6426    3.2153   -7.3763 N.am      1 <0>        -0.5576
     35 O1         -2.2426    4.6401   -8.9604 O.2       1 <0>        -0.6710
     36 O2          3.8302    3.7133   -5.7870 O.2       1 <0>        -0.4901
     37 O3          2.9978    1.0431   -5.3175 O.2       1 <0>        -0.5902
     38 O4          0.7038    1.7190   -9.1607 O.2       1 <0>        -0.5833
     39 H1         -6.8859    5.0974  -15.6263 H         1 <0>         0.1320
     40 H2         -4.5325    5.8822  -15.6180 H         1 <0>         0.1324
     41 H3         -7.9234    4.2648  -13.5323 H         1 <0>         0.1328
     42 H4         -3.2164    5.8366  -13.5249 H         1 <0>         0.1324
     43 H5         -6.6159    4.2152  -11.4338 H         1 <0>         0.1434
     44 H6         -2.6155   -0.6818   -2.3043 H         1 <0>         0.0405
     45 H7         -2.9079    0.6502   -3.4206 H         1 <0>         0.0421
     46 H8         -1.9065    1.5240   -1.3610 H         1 <0>         0.0362
     47 H9         -0.5691    0.3818   -1.4699 H         1 <0>         0.0439
     48 H10        -0.5872   -1.3383   -3.5175 H         1 <0>         0.0350
     49 H11        -1.9359   -1.2364   -4.6469 H         1 <0>         0.0428
     50 H12        -1.1711    2.6825   -3.3932 H         1 <0>         0.0663
     51 H13         0.1691    2.5863   -2.2600 H         1 <0>         0.0466
     52 H14         0.1389   -0.1855   -5.5603 H         1 <0>         0.0493
     53 H15        -1.1901    0.9592   -5.4447 H         1 <0>         0.0520
     54 H16        -2.5585    0.3895   -7.3089 H         1 <0>         0.0915
     55 H17        -0.8326   -0.0295   -7.3954 H         1 <0>         0.0601
     56 H18        -4.5863    2.2623  -11.9771 H         1 <0>         0.0688
     57 H19        -5.2388    2.7911  -10.4408 H         1 <0>         0.0630
     58 H20        -0.9122   -0.2366   -9.7676 H         1 <0>         0.0807
     59 H21        -2.5349   -0.8073   -9.3737 H         1 <0>         0.0380
     60 H22        -4.3377    1.0786   -9.2974 H         1 <0>         0.0484
     61 H23        -4.0848    0.3402  -10.8776 H         1 <0>         0.0697
     62 H24        -1.7000    2.6081   -7.1954 H         1 <0>         0.0843
     63 H25         1.1581    0.6833   -3.4852 H         1 <0>         0.0831
     64 H26        -3.3094    5.8060  -11.0670 H         1 <0>         0.0704
     65 H27        -4.6920    5.1466  -10.2166 H         1 <0>         0.0718
     66 H28         0.3683    5.4079   -8.8774 H         1 <0>         0.0606
     67 H29         1.7918    5.0040   -9.8306 H         1 <0>         0.0458
     68 H30         1.2300    7.6523   -8.4256 H         1 <0>         0.0375
     69 H31         2.7093    7.3123   -9.3176 H         1 <0>         0.0392
     70 H32         1.7604    5.7005   -6.8419 H         1 <0>         0.0606
     71 H33         3.2243    5.3739   -7.7660 H         1 <0>         0.0579
     72 H34        -0.1287    7.3572  -10.4981 H         1 <0>         0.0571
     73 H35         1.3345    6.9786  -11.4193 H         1 <0>         0.0503
     74 H36         2.4714    3.0747   -8.2388 H         1 <0>         0.0993
     75 H37        -2.0308    2.6159  -12.2556 H         1 <0>         0.3700
     76 H38        -1.8535    4.3538  -12.3024 H         1 <0>         0.3660
     77 H39         0.7014    9.4044  -11.5317 H         1 <0>         0.3465
     78 H40         1.9755    9.3785  -10.3359 H         1 <0>         0.3446
     79 H41         0.6002    3.1517   -4.9705 H         1 <0>         0.3148
     80 H42         0.0323    3.6193   -6.6682 H         1 <0>         0.3220
@<TRIPOS>BOND
     1    1    2 ar
     2    1    3 ar
     3    2    4 ar
     4    3    5 ar
     5    4    6 ar
     6    5    6 ar
     7    6   23 1
     8    7   22 1
     9    7   29 am
    10    7   35 2
    11    8    9 1
    12    8   28 1
    13    8   36 2
    14    9   33 am
    15    9   37 2
    16   10   20 1
    17   10   34 am
    18   10   38 2
    19   11   12 1
    20   11   13 1
    21   12   14 1
    22   13   15 1
    23   14   21 1
    24   15   21 1
    25   16   18 1
    26   16   20 1
    27   17   19 1
    28   17   22 1
    29   18   30 1
    30   19   30 1
    31   20   29 1
    32   21   33 1
    33   22   23 1
    34   22   31 1
    35   24   25 1
    36   24   26 1
    37   25   27 1
    38   26   28 1
    39   27   32 1
    40   28   34 1
    41   29   30 1
    42    1   39 1
    43    2   40 1
    44    3   41 1
    45    4   42 1
    46    5   43 1
    47   11   44 1
    48   11   45 1
    49   12   46 1
    50   12   47 1
    51   13   48 1
    52   13   49 1
    53   14   50 1
    54   14   51 1
    55   15   52 1
    56   15   53 1
    57   16   54 1
    58   16   55 1
    59   17   56 1
    60   17   57 1
    61   18   58 1
    62   18   59 1
    63   19   60 1
    64   19   61 1
    65   20   62 1
    66   21   63 1
    67   23   64 1
    68   23   65 1
    69   24   66 1
    70   24   67 1
    71   25   68 1
    72   25   69 1
    73   26   70 1
    74   26   71 1
    75   27   72 1
    76   27   73 1
    77   28   74 1
    78   31   75 1
    79   31   76 1
    80   32   77 1
    81   32   78 1
    82   33   79 1
    83   34   80 1
@<TRIPOS>MOLECULE
1a46_ligand_262
   80    83     0     0     0
SMALL
USER_CHARGES

mmff94s_NoEstat = 86.49
@<TRIPOS>ATOM
      1 C1         11.0121    9.2104   -7.9325 C.ar      1 <0>        -0.1300
      2 C2         11.5385    8.8832   -6.6829 C.ar      1 <0>        -0.1323
      3 C3          9.6345    9.1559   -8.1449 C.ar      1 <0>        -0.1309
      4 C4         10.6874    8.5015   -5.6458 C.ar      1 <0>        -0.1275
      5 C5          8.7834    8.7742   -7.1078 C.ar      1 <0>        -0.1272
      6 C6          9.3154    8.4495   -5.8650 C.ar      1 <0>        -0.0843
      7 C7          7.2411    6.0968   -3.6024 C.2       1 <0>         0.6709
      8 C8          5.2358    2.3798    1.5634 C.2       1 <0>         0.4867
      9 C9          5.6522    1.1980    2.3894 C.2       1 <0>         0.5883
     10 C10         6.5256    3.6321   -1.6689 C.2       1 <0>         0.6572
     11 C11         4.0322    0.9047    7.0463 C.3       1 <0>        -0.0802
     12 C12         5.2027    1.8445    6.7696 C.3       1 <0>        -0.0765
     13 C13         3.5408    0.2172    5.7752 C.3       1 <0>        -0.0774
     14 C14         6.3378    1.1287    6.0363 C.3       1 <0>        -0.0953
     15 C15         4.6799   -0.4951    5.0445 C.3       1 <0>        -0.0906
     16 C16         5.2113    3.0694   -3.7284 C.3       1 <0>        -0.0871
     17 C17         7.6012    6.0599   -6.1012 C.3       1 <0>        -0.0716
     18 C18         6.3446    2.7580   -4.7039 C.3       1 <0>         0.1333
     19 C19         6.8355    4.7264   -6.0536 C.3       1 <0>         0.1246
     20 C20         5.7868    4.1659   -2.8575 C.3       1 <0>         0.0606
     21 C21         5.8700    0.4288    4.7533 C.3       1 <0>         0.1012
     22 C22         8.1773    6.5224   -4.7422 C.3       1 <0>         0.1554
     23 C23         8.4000    8.0389   -4.7494 C.3       1 <0>        -0.0356
     24 C24         7.6485    3.7409    2.8432 C.3       1 <0>        -0.0795
     25 C25         8.2774    4.8743    3.6620 C.3       1 <0>        -0.1203
     26 C26         6.9719    4.2276    1.5544 C.3       1 <0>        -0.0920
     27 C27         8.9284    4.3945    4.9589 C.3       1 <0>         0.1502
     28 C28         6.2906    3.1130    0.7514 C.3       1 <0>         0.0224
     29 N1          6.7674    4.7991   -3.7183 N.am      1 <0>        -0.3553
     30 N2          7.1280    4.0001   -4.8193 N.3       1 <0>        -0.4320
     31 N3          9.4643    5.8648   -4.4722 N.3       1 <0>        -0.9031
     32 N4          9.4866    5.5266    5.6910 N.3       1 <0>        -0.9068
     33 N5          5.5058    1.4204    3.7389 N.am      1 <0>        -0.5526
     34 N6          5.7762    3.5917   -0.5046 N.am      1 <0>        -0.5576
     35 O1          6.9567    6.8465   -2.6685 O.2       1 <0>        -0.6710
     36 O2          4.0675    2.7325    1.6631 O.2       1 <0>        -0.4901
     37 O3          6.0787    0.2146    1.8066 O.2       1 <0>        -0.5902
     38 O4          7.6924    3.2783   -1.7917 O.2       1 <0>        -0.5833
     39 H1         11.6747    9.5075   -8.7400 H         1 <0>         0.1320
     40 H2         12.6111    8.9257   -6.5176 H         1 <0>         0.1324
     41 H3          9.2248    9.4105   -9.1180 H         1 <0>         0.1328
     42 H4         11.1066    8.2484   -4.6756 H         1 <0>         0.1324
     43 H5          7.7115    8.7346   -7.2826 H         1 <0>         0.1434
     44 H6          4.3425    0.1437    7.7730 H         1 <0>         0.0405
     45 H7          3.2093    1.4651    7.5043 H         1 <0>         0.0421
     46 H8          4.8545    2.6962    6.1728 H         1 <0>         0.0362
     47 H9          5.5771    2.2527    7.7153 H         1 <0>         0.0439
     48 H10         2.7581   -0.5070    6.0284 H         1 <0>         0.0350
     49 H11         3.0820    0.9603    5.1118 H         1 <0>         0.0428
     50 H12         7.1291    1.8519    5.8044 H         1 <0>         0.0663
     51 H13         6.7776    0.3814    6.7089 H         1 <0>         0.0466
     52 H14         5.0244   -1.3358    5.6600 H         1 <0>         0.0493
     53 H15         4.2965   -0.9219    4.1098 H         1 <0>         0.0520
     54 H16         4.3507    3.4578   -4.2870 H         1 <0>         0.0915
     55 H17         4.8908    2.1856   -3.1683 H         1 <0>         0.0601
     56 H18         8.4120    5.9885   -6.8390 H         1 <0>         0.0688
     57 H19         6.9149    6.8257   -6.4876 H         1 <0>         0.0630
     58 H20         6.9926    1.9855   -4.2725 H         1 <0>         0.0807
     59 H21         5.9735    2.3729   -5.6602 H         1 <0>         0.0380
     60 H22         5.7592    4.9288   -6.1435 H         1 <0>         0.0484
     61 H23         7.1185    4.1245   -6.9255 H         1 <0>         0.0697
     62 H24         5.0406    4.8864   -2.5107 H         1 <0>         0.0843
     63 H25         6.6942   -0.1508    4.3245 H         1 <0>         0.0831
     64 H26         8.8151    8.3408   -3.7861 H         1 <0>         0.0704
     65 H27         7.4343    8.5386   -4.8464 H         1 <0>         0.0718
     66 H28         8.4445    3.0306    2.5915 H         1 <0>         0.0606
     67 H29         6.9275    3.2007    3.4679 H         1 <0>         0.0458
     68 H30         9.0354    5.3625    3.0356 H         1 <0>         0.0375
     69 H31         7.5157    5.6329    3.8824 H         1 <0>         0.0392
     70 H32         7.7210    4.7221    0.9235 H         1 <0>         0.0606
     71 H33         6.2174    4.9831    1.8035 H         1 <0>         0.0579
     72 H34         9.7251    3.6753    4.7403 H         1 <0>         0.0571
     73 H35         8.1937    3.8977    5.5994 H         1 <0>         0.0503
     74 H36         7.0421    2.3587    0.4881 H         1 <0>         0.0993
     75 H37         9.5764    4.9261   -4.7778 H         1 <0>         0.3700
     76 H38        10.0811    6.3037   -3.8286 H         1 <0>         0.3660
     77 H39        10.0430    5.3371    6.4969 H         1 <0>         0.3465
     78 H40         9.1331    6.4373    5.4892 H         1 <0>         0.3446
     79 H41         5.1282    2.3120    4.0455 H         1 <0>         0.3148
     80 H42         4.8120    3.9176   -0.5391 H         1 <0>         0.3220
@<TRIPOS>BOND
     1    1    2 ar
     2    1    3 ar
     3    2    4 ar
     4    3    5 ar
     5    4    6 ar
     6    5    6 ar
     7    6   23 1
     8    7   22 1
     9    7   29 am
    10    7   35 2
    11    8    9 1
    12    8   28 1
    13    8   36 2
    14    9   33 am
    15    9   37 2
    16   10   20 1
    17   10   34 am
    18   10   38 2
    19   11   12 1
    20   11   13 1
    21   12   14 1
    22   13   15 1
    23   14   21 1
    24   15   21 1
    25   16   18 1
    26   16   20 1
    27   17   19 1
    28   17   22 1
    29   18   30 1
    30   19   30 1
    31   20   29 1
    32   21   33 1
    33   22   23 1
    34   22   31 1
    35   24   25 1
    36   24   26 1
    37   25   27 1
    38   26   28 1
    39   27   32 1
    40   28   34 1
    41   29   30 1
    42    1   39 1
    43    2   40 1
    44    3   41 1
    45    4   42 1
    46    5   43 1
    47   11   44 1
    48   11   45 1
    49   12   46 1
    50   12   47 1
    51   13   48 1
    52   13   49 1
    53   14   50 1
    54   14   51 1
    55   15   52 1
    56   15   53 1
    57   16   54 1
    58   16   55 1
    59   17   56 1
    60   17   57 1
    61   18   58 1
    62   18   59 1
    63   19   60 1
    64   19   61 1
    65   20   62 1
    66   21   63 1
    67   23   64 1
    68   23   65 1
    69   24   66 1
    70   24   67 1
    71   25   68 1
    72   25   69 1
    73   26   70 1
    74   26   71 1
    75   27   72 1
    76   27   73 1
    77   28   74 1
    78   31   75 1
    79   31   76 1
    80   32   77 1
    81   32   78 1
    82   33   79 1
    83   34   80 1
@<TRIPOS>MOLECULE
1a46_ligand_263
   80    83     0     0     0
SMALL
USER_CHARGES

mmff94s_NoEstat = 86.63
@<TRIPOS>ATOM
      1 C1         -2.6445   10.2618   -2.2387 C.ar      1 <0>        -0.1300
      2 C2         -2.3767    9.6884   -0.9957 C.ar      1 <0>        -0.1323
      3 C3         -2.1497    9.6701   -3.4009 C.ar      1 <0>        -0.1309
      4 C4         -1.6141    8.5233   -0.9148 C.ar      1 <0>        -0.1275
      5 C5         -1.3871    8.5049   -3.3201 C.ar      1 <0>        -0.1272
      6 C6         -1.1243    7.9391   -2.0776 C.ar      1 <0>        -0.0843
      7 C7          2.0326    5.7272   -1.7627 C.2       1 <0>         0.6709
      8 C8          5.2358    2.3798    1.5634 C.2       1 <0>         0.4867
      9 C9          5.6457    1.7076    2.8411 C.2       1 <0>         0.5883
     10 C10         4.7954    4.5647   -0.6048 C.2       1 <0>         0.6572
     11 C11         2.5045   -1.4855    4.9229 C.3       1 <0>        -0.0802
     12 C12         2.2294    0.0020    5.1270 C.3       1 <0>        -0.0765
     13 C13         3.7382   -1.7230    4.0561 C.3       1 <0>        -0.0774
     14 C14         3.4569    0.7312    5.6748 C.3       1 <0>        -0.0953
     15 C15         4.9623   -0.9899    4.6068 C.3       1 <0>        -0.0906
     16 C16         5.5346    5.5870   -2.7713 C.3       1 <0>        -0.0871
     17 C17         1.6625    7.8714   -3.0437 C.3       1 <0>        -0.0716
     18 C18         5.3303    7.0689   -2.4625 C.3       1 <0>         0.1333
     19 C19         3.1731    7.8019   -3.3266 C.3       1 <0>         0.1246
     20 C20         4.4137    4.9104   -2.0113 C.3       1 <0>         0.0606
     21 C21         4.7122    0.5090    4.8206 C.3       1 <0>         0.1012
     22 C22         1.1885    7.0064   -1.8522 C.3       1 <0>         0.1554
     23 C23        -0.3040    6.6858   -1.9906 C.3       1 <0>        -0.0356
     24 C24         8.0800    4.9598    0.7851 C.3       1 <0>        -0.0795
     25 C25         8.7880    6.0338    1.6192 C.3       1 <0>        -0.1203
     26 C26         6.9719    4.2276    1.5544 C.3       1 <0>        -0.0920
     27 C27         9.9095    6.7454    0.8629 C.3       1 <0>         0.1502
     28 C28         6.2906    3.1130    0.7514 C.3       1 <0>         0.0224
     29 N1          3.3921    5.9372   -1.9343 N.am      1 <0>        -0.3553
     30 N2          3.8913    7.2279   -2.1903 N.3       1 <0>        -0.4320
     31 N3          1.3958    7.7147   -0.5806 N.3       1 <0>        -0.9031
     32 N4         10.5470    7.7366    1.7233 N.3       1 <0>        -0.9068
     33 N5          4.5746    1.1891    3.5309 N.am      1 <0>        -0.5526
     34 N6          5.7762    3.5917   -0.5046 N.am      1 <0>        -0.5576
     35 O1          1.5345    4.6231   -1.5437 O.2       1 <0>        -0.6710
     36 O2          4.0412    2.3628    1.2952 O.2       1 <0>        -0.4901
     37 O3          6.8302    1.7091    3.1337 O.2       1 <0>        -0.5902
     38 O4          4.2448    5.1367    0.3286 O.2       1 <0>        -0.5833
     39 H1         -3.2382   11.1691   -2.3016 H         1 <0>         0.1320
     40 H2         -2.7620   10.1493   -0.0908 H         1 <0>         0.1324
     41 H3         -2.3582   10.1168   -4.3687 H         1 <0>         0.1328
     42 H4         -1.4106    8.0836    0.0580 H         1 <0>         0.1324
     43 H5         -1.0058    8.0510   -4.2309 H         1 <0>         0.1434
     44 H6          2.6499   -1.9644    5.8991 H         1 <0>         0.0405
     45 H7          1.6322   -1.9621    4.4616 H         1 <0>         0.0421
     46 H8          1.9253    0.4517    4.1741 H         1 <0>         0.0362
     47 H9          1.3889    0.1282    5.8190 H         1 <0>         0.0439
     48 H10         3.9478   -2.7974    4.0021 H         1 <0>         0.0350
     49 H11         3.5352   -1.3881    3.0317 H         1 <0>         0.0428
     50 H12         3.2358    1.8030    5.7487 H         1 <0>         0.0663
     51 H13         3.6533    0.3764    6.6946 H         1 <0>         0.0466
     52 H14         5.2453   -1.4437    5.5651 H         1 <0>         0.0493
     53 H15         5.8075   -1.1373    3.9236 H         1 <0>         0.0520
     54 H16         5.4011    5.4209   -3.8475 H         1 <0>         0.0915
     55 H17         6.5319    5.2374   -2.4876 H         1 <0>         0.0601
     56 H18         1.3705    8.9173   -2.8778 H         1 <0>         0.0688
     57 H19         1.1370    7.5576   -3.9559 H         1 <0>         0.0630
     58 H20         5.8802    7.3284   -1.5498 H         1 <0>         0.0807
     59 H21         5.7080    7.7145   -3.2631 H         1 <0>         0.0380
     60 H22         3.3395    7.2079   -4.2360 H         1 <0>         0.0484
     61 H23         3.5406    8.8134   -3.5374 H         1 <0>         0.0697
     62 H24         4.0335    4.0099   -2.5019 H         1 <0>         0.0843
     63 H25         5.5797    0.9644    5.3094 H         1 <0>         0.0831
     64 H26        -0.6181    6.0842   -1.1357 H         1 <0>         0.0704
     65 H27        -0.4536    6.0709   -2.8800 H         1 <0>         0.0718
     66 H28         7.6494    5.4516   -0.0948 H         1 <0>         0.0606
     67 H29         8.8216    4.2418    0.4157 H         1 <0>         0.0458
     68 H30         8.0356    6.7709    1.9287 H         1 <0>         0.0375
     69 H31         9.1825    5.5824    2.5383 H         1 <0>         0.0392
     70 H32         6.2171    4.9575    1.8728 H         1 <0>         0.0606
     71 H33         7.3929    3.7874    2.4660 H         1 <0>         0.0579
     72 H34         9.5108    7.2416   -0.0285 H         1 <0>         0.0571
     73 H35        10.6706    6.0303    0.5375 H         1 <0>         0.0503
     74 H36         7.0421    2.3587    0.4881 H         1 <0>         0.0993
     75 H37         2.1998    8.2929   -0.4996 H         1 <0>         0.3700
     76 H38         0.8492    7.4324    0.1998 H         1 <0>         0.3660
     77 H39        11.2163    8.3531    1.3147 H         1 <0>         0.3465
     78 H40        10.4498    7.6340    2.7108 H         1 <0>         0.3446
     79 H41         3.6470    1.2820    3.1279 H         1 <0>         0.3148
     80 H42         6.1527    3.1949   -1.3636 H         1 <0>         0.3220
@<TRIPOS>BOND
     1    1    2 ar
     2    1    3 ar
     3    2    4 ar
     4    3    5 ar
     5    4    6 ar
     6    5    6 ar
     7    6   23 1
     8    7   22 1
     9    7   29 am
    10    7   35 2
    11    8    9 1
    12    8   28 1
    13    8   36 2
    14    9   33 am
    15    9   37 2
    16   10   20 1
    17   10   34 am
    18   10   38 2
    19   11   12 1
    20   11   13 1
    21   12   14 1
    22   13   15 1
    23   14   21 1
    24   15   21 1
    25   16   18 1
    26   16   20 1
    27   17   19 1
    28   17   22 1
    29   18   30 1
    30   19   30 1
    31   20   29 1
    32   21   33 1
    33   22   23 1
    34   22   31 1
    35   24   25 1
    36   24   26 1
    37   25   27 1
    38   26   28 1
    39   27   32 1
    40   28   34 1
    41   29   30 1
    42    1   39 1
    43    2   40 1
    44    3   41 1
    45    4   42 1
    46    5   43 1
    47   11   44 1
    48   11   45 1
    49   12   46 1
    50   12   47 1
    51   13   48 1
    52   13   49 1
    53   14   50 1
    54   14   51 1
    55   15   52 1
    56   15   53 1
    57   16   54 1
    58   16   55 1
    59   17   56 1
    60   17   57 1
    61   18   58 1
    62   18   59 1
    63   19   60 1
    64   19   61 1
    65   20   62 1
    66   21   63 1
    67   23   64 1
    68   23   65 1
    69   24   66 1
    70   24   67 1
    71   25   68 1
    72   25   69 1
    73   26   70 1
    74   26   71 1
    75   27   72 1
    76   27   73 1
    77   28   74 1
    78   31   75 1
    79   31   76 1
    80   32   77 1
    81   32   78 1
    82   33   79 1
    83   34   80 1
@<TRIPOS>MOLECULE
1a46_ligand_264
   80    83     0     0     0
SMALL
USER_CHARGES

mmff94s_NoEstat = 86.69
@<TRIPOS>ATOM
      1 C1         -4.2961    6.3604   -2.7495 C.ar      1 <0>        -0.1300
      2 C2         -3.8917    5.7888   -1.5431 C.ar      1 <0>        -0.1323
      3 C3         -3.4839    6.2539   -3.8786 C.ar      1 <0>        -0.1309
      4 C4         -2.6752    5.1109   -1.4657 C.ar      1 <0>        -0.1275
      5 C5         -2.2674    5.5759   -3.8012 C.ar      1 <0>        -0.1272
      6 C6         -1.8709    5.0088   -2.5952 C.ar      1 <0>        -0.0843
      7 C7          1.9202    4.4855   -2.0375 C.2       1 <0>         0.6709
      8 C8          5.2358    2.3798    1.5634 C.2       1 <0>         0.4867
      9 C9          5.6457    1.7076    2.8411 C.2       1 <0>         0.5883
     10 C10         4.7954    4.5647   -0.6048 C.2       1 <0>         0.6572
     11 C11         2.1663    1.0159    6.2780 C.3       1 <0>        -0.0802
     12 C12         3.2201    2.1107    6.1333 C.3       1 <0>        -0.0765
     13 C13         2.2283    0.0105    5.1312 C.3       1 <0>        -0.0774
     14 C14         4.6225    1.5236    5.9684 C.3       1 <0>        -0.0953
     15 C15         3.6331   -0.5719    4.9689 C.3       1 <0>        -0.0906
     16 C16         5.1345    6.1376   -2.5274 C.3       1 <0>        -0.0871
     17 C17         0.6797    6.3873   -3.1418 C.3       1 <0>        -0.0716
     18 C18         4.2227    7.2889   -2.1078 C.3       1 <0>         0.1333
     19 C19         2.0578    7.0682   -3.2043 C.3       1 <0>         0.1246
     20 C20         4.4137    4.9104   -2.0113 C.3       1 <0>         0.0606
     21 C21         4.7122    0.5090    4.8206 C.3       1 <0>         0.1012
     22 C22         0.5786    5.2268   -2.1241 C.3       1 <0>         0.1554
     23 C23        -0.5623    4.2796   -2.5120 C.3       1 <0>        -0.0356
     24 C24         8.0800    4.9598    0.7851 C.3       1 <0>        -0.0795
     25 C25         8.7880    6.0338    1.6192 C.3       1 <0>        -0.1203
     26 C26         6.9719    4.2276    1.5544 C.3       1 <0>        -0.0920
     27 C27         9.9095    6.7454    0.8629 C.3       1 <0>         0.1502
     28 C28         6.2906    3.1130    0.7514 C.3       1 <0>         0.0224
     29 N1          3.0235    5.3233   -1.9852 N.am      1 <0>        -0.3553
     30 N2          2.8653    6.7208   -2.0365 N.3       1 <0>        -0.4320
     31 N3          0.3159    5.7420   -0.7724 N.3       1 <0>        -0.9031
     32 N4         10.5470    7.7366    1.7233 N.3       1 <0>        -0.9068
     33 N5          4.5746    1.1891    3.5309 N.am      1 <0>        -0.5526
     34 N6          5.7762    3.5917   -0.5046 N.am      1 <0>        -0.5576
     35 O1          1.9934    3.2573   -2.0040 O.2       1 <0>        -0.6710
     36 O2          4.0412    2.3628    1.2952 O.2       1 <0>        -0.4901
     37 O3          6.8302    1.7091    3.1337 O.2       1 <0>        -0.5902
     38 O4          4.2448    5.1367    0.3286 O.2       1 <0>        -0.5833
     39 H1         -5.2433    6.8883   -2.8098 H         1 <0>         0.1320
     40 H2         -4.5242    5.8718   -0.6641 H         1 <0>         0.1324
     41 H3         -3.7988    6.6991   -4.8178 H         1 <0>         0.1328
     42 H4         -2.3683    4.6687   -0.5215 H         1 <0>         0.1324
     43 H5         -1.6411    5.4981   -4.6860 H         1 <0>         0.1434
     44 H6          2.3179    0.4905    7.2291 H         1 <0>         0.0405
     45 H7          1.1686    1.4673    6.3195 H         1 <0>         0.0421
     46 H8          2.9772    2.7399    5.2686 H         1 <0>         0.0362
     47 H9          3.1966    2.7616    7.0149 H         1 <0>         0.0439
     48 H10         1.5141   -0.8003    5.3147 H         1 <0>         0.0350
     49 H11         1.9196    0.4995    4.1994 H         1 <0>         0.0428
     50 H12         5.3377    2.3393    5.8074 H         1 <0>         0.0663
     51 H13         4.9110    1.0282    6.9042 H         1 <0>         0.0466
     52 H14         3.8646   -1.1878    5.8473 H         1 <0>         0.0493
     53 H15         3.6472   -1.2405    4.0996 H         1 <0>         0.0520
     54 H16         5.1868    6.0993   -3.6226 H         1 <0>         0.0915
     55 H17         6.1502    6.2483   -2.1355 H         1 <0>         0.0601
     56 H18        -0.0889    7.1398   -2.9187 H         1 <0>         0.0688
     57 H19         0.4458    6.0134   -4.1479 H         1 <0>         0.0630
     58 H20         4.5037    7.6265   -1.1030 H         1 <0>         0.0807
     59 H21         4.3115    8.1522   -2.7765 H         1 <0>         0.0380
     60 H22         2.5627    6.7687   -4.1331 H         1 <0>         0.0484
     61 H23         1.9139    8.1541   -3.2580 H         1 <0>         0.0697
     62 H24         4.5519    4.0254   -2.6387 H         1 <0>         0.0843
     63 H25         5.7040    0.0450    4.8113 H         1 <0>         0.0831
     64 H26        -0.6211    3.4755   -1.7762 H         1 <0>         0.0704
     65 H27        -0.3254    3.8127   -3.4698 H         1 <0>         0.0718
     66 H28         7.6494    5.4516   -0.0948 H         1 <0>         0.0606
     67 H29         8.8216    4.2418    0.4157 H         1 <0>         0.0458
     68 H30         8.0356    6.7709    1.9287 H         1 <0>         0.0375
     69 H31         9.1825    5.5824    2.5383 H         1 <0>         0.0392
     70 H32         6.2171    4.9575    1.8728 H         1 <0>         0.0606
     71 H33         7.3929    3.7874    2.4660 H         1 <0>         0.0579
     72 H34         9.5108    7.2416   -0.0285 H         1 <0>         0.0571
     73 H35        10.6706    6.0303    0.5375 H         1 <0>         0.0503
     74 H36         7.0421    2.3587    0.4881 H         1 <0>         0.0993
     75 H37         0.7364    6.6054   -0.5173 H         1 <0>         0.3700
     76 H38        -0.0926    5.1211   -0.1128 H         1 <0>         0.3660
     77 H39        11.2163    8.3531    1.3147 H         1 <0>         0.3465
     78 H40        10.4498    7.6340    2.7108 H         1 <0>         0.3446
     79 H41         3.6470    1.2820    3.1279 H         1 <0>         0.3148
     80 H42         6.1527    3.1949   -1.3636 H         1 <0>         0.3220
@<TRIPOS>BOND
     1    1    2 ar
     2    1    3 ar
     3    2    4 ar
     4    3    5 ar
     5    4    6 ar
     6    5    6 ar
     7    6   23 1
     8    7   22 1
     9    7   29 am
    10    7   35 2
    11    8    9 1
    12    8   28 1
    13    8   36 2
    14    9   33 am
    15    9   37 2
    16   10   20 1
    17   10   34 am
    18   10   38 2
    19   11   12 1
    20   11   13 1
    21   12   14 1
    22   13   15 1
    23   14   21 1
    24   15   21 1
    25   16   18 1
    26   16   20 1
    27   17   19 1
    28   17   22 1
    29   18   30 1
    30   19   30 1
    31   20   29 1
    32   21   33 1
    33   22   23 1
    34   22   31 1
    35   24   25 1
    36   24   26 1
    37   25   27 1
    38   26   28 1
    39   27   32 1
    40   28   34 1
    41   29   30 1
    42    1   39 1
    43    2   40 1
    44    3   41 1
    45    4   42 1
    46    5   43 1
    47   11   44 1
    48   11   45 1
    49   12   46 1
    50   12   47 1
    51   13   48 1
    52   13   49 1
    53   14   50 1
    54   14   51 1
    55   15   52 1
    56   15   53 1
    57   16   54 1
    58   16   55 1
    59   17   56 1
    60   17   57 1
    61   18   58 1
    62   18   59 1
    63   19   60 1
    64   19   61 1
    65   20   62 1
    66   21   63 1
    67   23   64 1
    68   23   65 1
    69   24   66 1
    70   24   67 1
    71   25   68 1
    72   25   69 1
    73   26   70 1
    74   26   71 1
    75   27   72 1
    76   27   73 1
    77   28   74 1
    78   31   75 1
    79   31   76 1
    80   32   77 1
    81   32   78 1
    82   33   79 1
    83   34   80 1
@<TRIPOS>MOLECULE
1a46_ligand_265
   80    83     0     0     0
SMALL
USER_CHARGES

mmff94s_NoEstat = 86.69
@<TRIPOS>ATOM
      1 C1         11.1945    5.3647   -9.7731 C.ar      1 <0>        -0.1300
      2 C2         11.8337    5.1154   -8.5586 C.ar      1 <0>        -0.1323
      3 C3          9.8873    5.8513   -9.7863 C.ar      1 <0>        -0.1309
      4 C4         11.1656    5.3526   -7.3573 C.ar      1 <0>        -0.1275
      5 C5          9.2192    6.0884   -8.5850 C.ar      1 <0>        -0.1272
      6 C6          9.8628    5.8375   -7.3783 C.ar      1 <0>        -0.0843
      7 C7          7.6425    5.1042   -4.2977 C.2       1 <0>         0.6709
      8 C8          5.2358    2.3798    1.5634 C.2       1 <0>         0.4867
      9 C9          5.6457    1.7076    2.8411 C.2       1 <0>         0.5883
     10 C10         6.5256    3.6321   -1.6689 C.2       1 <0>         0.6572
     11 C11         2.5045   -1.4855    4.9229 C.3       1 <0>        -0.0802
     12 C12         2.2294    0.0020    5.1270 C.3       1 <0>        -0.0765
     13 C13         3.7382   -1.7230    4.0561 C.3       1 <0>        -0.0774
     14 C14         3.4569    0.7312    5.6748 C.3       1 <0>        -0.0953
     15 C15         4.9623   -0.9899    4.6068 C.3       1 <0>        -0.0906
     16 C16         4.6595    3.2577   -3.3009 C.3       1 <0>        -0.0871
     17 C17         7.3760    4.3986   -6.7074 C.3       1 <0>        -0.0716
     18 C18         5.3367    2.3027   -4.2819 C.3       1 <0>         0.1333
     19 C19         6.2012    3.5529   -6.1864 C.3       1 <0>         0.1246
     20 C20         5.7868    4.1659   -2.8575 C.3       1 <0>         0.0606
     21 C21         4.7122    0.5090    4.8206 C.3       1 <0>         0.1012
     22 C22         8.3797    4.8486   -5.6198 C.3       1 <0>         0.1554
     23 C23         9.1441    6.0926   -6.0861 C.3       1 <0>        -0.0356
     24 C24         8.0800    4.9598    0.7851 C.3       1 <0>        -0.0795
     25 C25         8.7880    6.0338    1.6192 C.3       1 <0>        -0.1203
     26 C26         6.9719    4.2276    1.5544 C.3       1 <0>        -0.0920
     27 C27         9.9095    6.7454    0.8629 C.3       1 <0>         0.1502
     28 C28         6.2906    3.1130    0.7514 C.3       1 <0>         0.0224
     29 N1          6.7058    4.1331   -3.9791 N.am      1 <0>        -0.3553
     30 N2          6.4777    3.0462   -4.8435 N.3       1 <0>        -0.4320
     31 N3          9.3531    3.7833   -5.3380 N.3       1 <0>        -0.9031
     32 N4         10.5470    7.7366    1.7233 N.3       1 <0>        -0.9068
     33 N5          4.5746    1.1891    3.5309 N.am      1 <0>        -0.5526
     34 N6          5.7762    3.5917   -0.5046 N.am      1 <0>        -0.5576
     35 O1          7.8821    6.0807   -3.5877 O.2       1 <0>        -0.6710
     36 O2          4.0412    2.3628    1.2952 O.2       1 <0>        -0.4901
     37 O3          6.8302    1.7091    3.1337 O.2       1 <0>        -0.5902
     38 O4          7.6924    3.2783   -1.7917 O.2       1 <0>        -0.5833
     39 H1         11.7147    5.1800  -10.7084 H         1 <0>         0.1320
     40 H2         12.8515    4.7366   -8.5485 H         1 <0>         0.1324
     41 H3          9.3897    6.0452  -10.7320 H         1 <0>         0.1328
     42 H4         11.6716    5.1554   -6.4159 H         1 <0>         0.1324
     43 H5          8.2009    6.4675   -8.6050 H         1 <0>         0.1434
     44 H6          2.6499   -1.9644    5.8991 H         1 <0>         0.0405
     45 H7          1.6322   -1.9621    4.4616 H         1 <0>         0.0421
     46 H8          1.9253    0.4517    4.1741 H         1 <0>         0.0362
     47 H9          1.3889    0.1282    5.8190 H         1 <0>         0.0439
     48 H10         3.9478   -2.7974    4.0021 H         1 <0>         0.0350
     49 H11         3.5352   -1.3881    3.0317 H         1 <0>         0.0428
     50 H12         3.2358    1.8030    5.7487 H         1 <0>         0.0663
     51 H13         3.6533    0.3764    6.6946 H         1 <0>         0.0466
     52 H14         5.2453   -1.4437    5.5651 H         1 <0>         0.0493
     53 H15         5.8075   -1.1373    3.9236 H         1 <0>         0.0520
     54 H16         3.9023    3.8458   -3.8340 H         1 <0>         0.0915
     55 H17         4.1709    2.7289   -2.4768 H         1 <0>         0.0601
     56 H18         7.9078    3.8408   -7.4902 H         1 <0>         0.0688
     57 H19         6.9559    5.2827   -7.2061 H         1 <0>         0.0630
     58 H20         5.7303    1.4383   -3.7336 H         1 <0>         0.0807
     59 H21         4.6390    1.9190   -5.0344 H         1 <0>         0.0380
     60 H22         5.2889    4.1652   -6.1941 H         1 <0>         0.0484
     61 H23         6.0298    2.7205   -6.8794 H         1 <0>         0.0697
     62 H24         5.4651    5.1881   -2.6391 H         1 <0>         0.0843
     63 H25         5.5797    0.9644    5.3094 H         1 <0>         0.0831
     64 H26         9.8520    6.3858   -5.3087 H         1 <0>         0.0704
     65 H27         8.4405    6.9195   -6.1990 H         1 <0>         0.0718
     66 H28         7.6494    5.4516   -0.0948 H         1 <0>         0.0606
     67 H29         8.8216    4.2418    0.4157 H         1 <0>         0.0458
     68 H30         8.0356    6.7709    1.9287 H         1 <0>         0.0375
     69 H31         9.1825    5.5824    2.5383 H         1 <0>         0.0392
     70 H32         6.2171    4.9575    1.8728 H         1 <0>         0.0606
     71 H33         7.3929    3.7874    2.4660 H         1 <0>         0.0579
     72 H34         9.5108    7.2416   -0.0285 H         1 <0>         0.0571
     73 H35        10.6706    6.0303    0.5375 H         1 <0>         0.0503
     74 H36         7.0421    2.3587    0.4881 H         1 <0>         0.0993
     75 H37         9.0331    2.8434   -5.3754 H         1 <0>         0.3700
     76 H38        10.2196    4.0460   -4.9287 H         1 <0>         0.3660
     77 H39        11.2163    8.3531    1.3147 H         1 <0>         0.3465
     78 H40        10.4498    7.6340    2.7108 H         1 <0>         0.3446
     79 H41         3.6470    1.2820    3.1279 H         1 <0>         0.3148
     80 H42         4.8120    3.9176   -0.5391 H         1 <0>         0.3220
@<TRIPOS>BOND
     1    1    2 ar
     2    1    3 ar
     3    2    4 ar
     4    3    5 ar
     5    4    6 ar
     6    5    6 ar
     7    6   23 1
     8    7   22 1
     9    7   29 am
    10    7   35 2
    11    8    9 1
    12    8   28 1
    13    8   36 2
    14    9   33 am
    15    9   37 2
    16   10   20 1
    17   10   34 am
    18   10   38 2
    19   11   12 1
    20   11   13 1
    21   12   14 1
    22   13   15 1
    23   14   21 1
    24   15   21 1
    25   16   18 1
    26   16   20 1
    27   17   19 1
    28   17   22 1
    29   18   30 1
    30   19   30 1
    31   20   29 1
    32   21   33 1
    33   22   23 1
    34   22   31 1
    35   24   25 1
    36   24   26 1
    37   25   27 1
    38   26   28 1
    39   27   32 1
    40   28   34 1
    41   29   30 1
    42    1   39 1
    43    2   40 1
    44    3   41 1
    45    4   42 1
    46    5   43 1
    47   11   44 1
    48   11   45 1
    49   12   46 1
    50   12   47 1
    51   13   48 1
    52   13   49 1
    53   14   50 1
    54   14   51 1
    55   15   52 1
    56   15   53 1
    57   16   54 1
    58   16   55 1
    59   17   56 1
    60   17   57 1
    61   18   58 1
    62   18   59 1
    63   19   60 1
    64   19   61 1
    65   20   62 1
    66   21   63 1
    67   23   64 1
    68   23   65 1
    69   24   66 1
    70   24   67 1
    71   25   68 1
    72   25   69 1
    73   26   70 1
    74   26   71 1
    75   27   72 1
    76   27   73 1
    77   28   74 1
    78   31   75 1
    79   31   76 1
    80   32   77 1
    81   32   78 1
    82   33   79 1
    83   34   80 1
@<TRIPOS>MOLECULE
1a46_ligand_266
   80    83     0     0     0
SMALL
USER_CHARGES

mmff94s_NoEstat = 86.76
@<TRIPOS>ATOM
      1 C1          8.7841   12.3584   -5.8200 C.ar      1 <0>        -0.1300
      2 C2          9.2413   12.0197   -4.5466 C.ar      1 <0>        -0.1323
      3 C3          7.6186   11.7776   -6.3200 C.ar      1 <0>        -0.1309
      4 C4          8.5332   11.1000   -3.7731 C.ar      1 <0>        -0.1275
      5 C5          6.9105   10.8578   -5.5465 C.ar      1 <0>        -0.1272
      6 C6          7.3724   10.5251   -4.2781 C.ar      1 <0>        -0.0843
      7 C7          6.3227    7.0882   -2.8484 C.2       1 <0>         0.6709
      8 C8          5.2358    2.3798    1.5634 C.2       1 <0>         0.4867
      9 C9          5.6522    1.1980    2.3894 C.2       1 <0>         0.5883
     10 C10         6.5648    4.1956   -1.4701 C.2       1 <0>         0.6572
     11 C11         2.8569    0.0394    6.2934 C.3       1 <0>        -0.0802
     12 C12         4.1514    0.8426    6.1981 C.3       1 <0>        -0.0765
     13 C13         2.3812   -0.4389    4.9242 C.3       1 <0>        -0.0774
     14 C14         5.2417    0.0671    5.4575 C.3       1 <0>        -0.0953
     15 C15         3.4756   -1.2117    4.1867 C.3       1 <0>        -0.0906
     16 C16         5.9150    3.5956   -3.8160 C.3       1 <0>        -0.0871
     17 C17         6.9686    7.7509   -5.1976 C.3       1 <0>        -0.0716
     18 C18         7.1782    4.0100   -4.5681 C.3       1 <0>         0.1333
     19 C19         6.8896    6.2440   -5.4973 C.3       1 <0>         0.1246
     20 C20         5.8189    4.6139   -2.6998 C.3       1 <0>         0.0606
     21 C21         4.7887   -0.4252    4.0765 C.3       1 <0>         0.1012
     22 C22         7.0990    8.1048   -3.6974 C.3       1 <0>         0.1554
     23 C23         6.6107    9.5357   -3.4460 C.3       1 <0>        -0.0356
     24 C24         7.6485    3.7409    2.8432 C.3       1 <0>        -0.0795
     25 C25         8.2774    4.8743    3.6620 C.3       1 <0>        -0.1203
     26 C26         6.9719    4.2276    1.5544 C.3       1 <0>        -0.0920
     27 C27         8.9284    4.3945    4.9589 C.3       1 <0>         0.1502
     28 C28         6.2906    3.1130    0.7514 C.3       1 <0>         0.0224
     29 N1          6.5058    5.7713   -3.2406 N.am      1 <0>        -0.3553
     30 N2          7.3227    5.4587   -4.3431 N.3       1 <0>        -0.4320
     31 N3          8.4993    8.0079   -3.2602 N.3       1 <0>        -0.9031
     32 N4          9.4866    5.5266    5.6910 N.3       1 <0>        -0.9068
     33 N5          4.6259    0.7077    3.1628 N.am      1 <0>        -0.5526
     34 N6          5.7762    3.5917   -0.5046 N.am      1 <0>        -0.5576
     35 O1          5.6162    7.4259   -1.8987 O.2       1 <0>        -0.6710
     36 O2          4.0675    2.7325    1.6631 O.2       1 <0>        -0.4901
     37 O3          6.8111    0.8244    2.3100 O.2       1 <0>        -0.5902
     38 O4          7.7705    4.4014   -1.3956 O.2       1 <0>        -0.5833
     39 H1          9.3355   13.0745   -6.4223 H         1 <0>         0.1320
     40 H2         10.1488   12.4721   -4.1574 H         1 <0>         0.1324
     41 H3          7.2628   12.0413   -7.3117 H         1 <0>         0.1328
     42 H4          8.8970   10.8421   -2.7820 H         1 <0>         0.1324
     43 H5          6.0035   10.4103   -5.9443 H         1 <0>         0.1434
     44 H6          3.0162   -0.8286    6.9451 H         1 <0>         0.0405
     45 H7          2.0772    0.6503    6.7622 H         1 <0>         0.0421
     46 H8          3.9561    1.7911    5.6834 H         1 <0>         0.0362
     47 H9          4.5014    1.0954    7.2055 H         1 <0>         0.0439
     48 H10         1.4988   -1.0776    5.0444 H         1 <0>         0.0350
     49 H11         2.0681    0.4241    4.3241 H         1 <0>         0.0428
     50 H12         6.1309    0.7014    5.3588 H         1 <0>         0.0663
     51 H13         5.5348   -0.7986    6.0650 H         1 <0>         0.0466
     52 H14         3.6672   -2.1509    4.7211 H         1 <0>         0.0493
     53 H15         3.1137   -1.4830    3.1876 H         1 <0>         0.0520
     54 H16         5.0489    3.6975   -4.4816 H         1 <0>         0.0915
     55 H17         5.9620    2.5605   -3.4641 H         1 <0>         0.0601
     56 H18         7.8089    8.1894   -5.7531 H         1 <0>         0.0688
     57 H19         6.0643    8.2210   -5.6074 H         1 <0>         0.0630
     58 H20         8.0462    3.5082   -4.1236 H         1 <0>         0.0807
     59 H21         7.1438    3.7229   -5.6248 H         1 <0>         0.0380
     60 H22         5.8587    5.9894   -5.7800 H         1 <0>         0.0484
     61 H23         7.5203    6.0225   -6.3666 H         1 <0>         0.0697
     62 H24         4.7909    4.8594   -2.4187 H         1 <0>         0.0843
     63 H25         5.5651   -1.0584    3.6346 H         1 <0>         0.0831
     64 H26         6.7207    9.7666   -2.3849 H         1 <0>         0.0704
     65 H27         5.5439    9.5911   -3.6710 H         1 <0>         0.0718
     66 H28         8.4445    3.0306    2.5915 H         1 <0>         0.0606
     67 H29         6.9275    3.2007    3.4679 H         1 <0>         0.0458
     68 H30         9.0354    5.3625    3.0356 H         1 <0>         0.0375
     69 H31         7.5157    5.6329    3.8824 H         1 <0>         0.0392
     70 H32         7.7210    4.7221    0.9235 H         1 <0>         0.0606
     71 H33         6.2174    4.9831    1.8035 H         1 <0>         0.0579
     72 H34         9.7251    3.6753    4.7403 H         1 <0>         0.0571
     73 H35         8.1937    3.8977    5.5994 H         1 <0>         0.0503
     74 H36         7.0421    2.3587    0.4881 H         1 <0>         0.0993
     75 H37         9.0611    7.2946   -3.6639 H         1 <0>         0.3700
     76 H38         8.7654    8.5137   -2.4473 H         1 <0>         0.3660
     77 H39        10.0430    5.3371    6.4969 H         1 <0>         0.3465
     78 H40         9.1331    6.4373    5.4892 H         1 <0>         0.3446
     79 H41         3.7145    1.1511    3.0972 H         1 <0>         0.3148
     80 H42         4.7816    3.4809   -0.6931 H         1 <0>         0.3220
@<TRIPOS>BOND
     1    1    2 ar
     2    1    3 ar
     3    2    4 ar
     4    3    5 ar
     5    4    6 ar
     6    5    6 ar
     7    6   23 1
     8    7   22 1
     9    7   29 am
    10    7   35 2
    11    8    9 1
    12    8   28 1
    13    8   36 2
    14    9   33 am
    15    9   37 2
    16   10   20 1
    17   10   34 am
    18   10   38 2
    19   11   12 1
    20   11   13 1
    21   12   14 1
    22   13   15 1
    23   14   21 1
    24   15   21 1
    25   16   18 1
    26   16   20 1
    27   17   19 1
    28   17   22 1
    29   18   30 1
    30   19   30 1
    31   20   29 1
    32   21   33 1
    33   22   23 1
    34   22   31 1
    35   24   25 1
    36   24   26 1
    37   25   27 1
    38   26   28 1
    39   27   32 1
    40   28   34 1
    41   29   30 1
    42    1   39 1
    43    2   40 1
    44    3   41 1
    45    4   42 1
    46    5   43 1
    47   11   44 1
    48   11   45 1
    49   12   46 1
    50   12   47 1
    51   13   48 1
    52   13   49 1
    53   14   50 1
    54   14   51 1
    55   15   52 1
    56   15   53 1
    57   16   54 1
    58   16   55 1
    59   17   56 1
    60   17   57 1
    61   18   58 1
    62   18   59 1
    63   19   60 1
    64   19   61 1
    65   20   62 1
    66   21   63 1
    67   23   64 1
    68   23   65 1
    69   24   66 1
    70   24   67 1
    71   25   68 1
    72   25   69 1
    73   26   70 1
    74   26   71 1
    75   27   72 1
    76   27   73 1
    77   28   74 1
    78   31   75 1
    79   31   76 1
    80   32   77 1
    81   32   78 1
    82   33   79 1
    83   34   80 1
@<TRIPOS>MOLECULE
1a46_ligand_267
   80    83     0     0     0
SMALL
USER_CHARGES

mmff94s_NoEstat = 86.78
@<TRIPOS>ATOM
      1 C1         -7.1732    5.1663  -14.6915 C.ar      1 <0>        -0.1300
      2 C2         -5.9354    5.8086  -14.7170 C.ar      1 <0>        -0.1323
      3 C3         -7.6444    4.6069  -13.5037 C.ar      1 <0>        -0.1309
      4 C4         -5.1685    5.8915  -13.5548 C.ar      1 <0>        -0.1275
      5 C5         -6.8775    4.6898  -12.3415 C.ar      1 <0>        -0.1272
      6 C6         -5.6446    5.3316  -12.3746 C.ar      1 <0>        -0.0843
      7 C7         -3.0329    4.3040   -9.7137 C.2       1 <0>         0.6709
      8 C8          2.7796    3.2097   -6.1637 C.2       1 <0>         0.4867
      9 C9          2.0233    2.5606   -5.0416 C.2       1 <0>         0.5883
     10 C10        -0.2306    3.3845   -8.4382 C.2       1 <0>         0.6572
     11 C11        -2.2304    3.2606   -1.7811 C.3       1 <0>        -0.0802
     12 C12        -0.9342    3.8921   -1.2811 C.3       1 <0>        -0.0765
     13 C13        -1.9607    2.0515   -2.6723 C.3       1 <0>        -0.0774
     14 C14         0.0030    4.2439   -2.4351 C.3       1 <0>        -0.0953
     15 C15        -1.0251    2.4015   -3.8283 C.3       1 <0>        -0.0906
     16 C16        -1.6648    1.3674   -8.0386 C.3       1 <0>        -0.0871
     17 C17        -4.6909    2.9009  -11.0011 C.3       1 <0>        -0.0716
     18 C18        -1.8612    0.8785   -9.4723 C.3       1 <0>         0.1333
     19 C19        -3.9819    1.7050  -10.3424 C.3       1 <0>         0.1246
     20 C20        -1.6152    2.8736   -8.1831 C.3       1 <0>         0.0606
     21 C21         0.2802    3.0242   -3.3210 C.3       1 <0>         0.1012
     22 C22        -3.8794    4.2177  -10.9915 C.3       1 <0>         0.1554
     23 C23        -4.8198    5.4208  -11.1245 C.3       1 <0>        -0.0356
     24 C24         3.6080    5.6033   -7.8654 C.3       1 <0>        -0.0795
     25 C25         3.7321    7.1143   -8.0937 C.3       1 <0>        -0.1203
     26 C26         2.1570    5.1335   -7.6933 C.3       1 <0>        -0.0920
     27 C27         5.1782    7.5875   -8.2387 C.3       1 <0>         0.1502
     28 C28         2.0196    3.6328   -7.4097 C.3       1 <0>         0.0224
     29 N1         -2.3880    3.1216   -9.3852 N.am      1 <0>        -0.3553
     30 N2         -2.5540    1.9705  -10.1777 N.3       1 <0>        -0.4320
     31 N3         -2.9247    4.2482  -12.1092 N.3       1 <0>        -0.9031
     32 N4          5.8065    6.9420   -9.3866 N.3       1 <0>        -0.9068
     33 N5          1.1182    3.4132   -4.4536 N.am      1 <0>        -0.5526
     34 N6          0.6426    3.2153   -7.3763 N.am      1 <0>        -0.5576
     35 O1         -2.9337    5.3408   -9.0578 O.2       1 <0>        -0.6710
     36 O2          3.9949    3.2835   -6.0334 O.2       1 <0>        -0.4901
     37 O3          2.2923    1.4031   -4.7649 O.2       1 <0>        -0.5902
     38 O4          0.0350    3.8958   -9.5198 O.2       1 <0>        -0.5833
     39 H1         -7.7703    5.1016  -15.5965 H         1 <0>         0.1320
     40 H2         -5.5686    6.2441  -15.6419 H         1 <0>         0.1324
     41 H3         -8.6082    4.1066  -13.4840 H         1 <0>         0.1328
     42 H4         -4.2053    6.3939  -13.5842 H         1 <0>         0.1324
     43 H5         -7.2527    4.2510  -11.4207 H         1 <0>         0.1434
     44 H6         -2.8470    2.9587   -0.9269 H         1 <0>         0.0405
     45 H7         -2.8055    4.0065   -2.3434 H         1 <0>         0.0421
     46 H8         -1.1629    4.7951   -0.7038 H         1 <0>         0.0362
     47 H9         -0.4280    3.1969   -0.6001 H         1 <0>         0.0439
     48 H10        -1.5149    1.2478   -2.0735 H         1 <0>         0.0350
     49 H11        -2.9075    1.6673   -3.0683 H         1 <0>         0.0428
     50 H12        -0.4426    5.0491   -3.0339 H         1 <0>         0.0663
     51 H13         0.9453    4.6391   -2.0364 H         1 <0>         0.0466
     52 H14        -0.8073    1.4985   -4.4114 H         1 <0>         0.0493
     53 H15        -1.5324    3.0967   -4.5102 H         1 <0>         0.0520
     54 H16        -2.5383    1.0847   -7.4380 H         1 <0>         0.0915
     55 H17        -0.7712    0.9407   -7.5731 H         1 <0>         0.0601
     56 H18        -4.9589    2.6417  -12.0345 H         1 <0>         0.0688
     57 H19        -5.6440    3.0543  -10.4769 H         1 <0>         0.0630
     58 H20        -0.8817    0.7357   -9.9443 H         1 <0>         0.0807
     59 H21        -2.3843   -0.0833   -9.5137 H         1 <0>         0.0380
     60 H22        -4.4563    1.4977   -9.3732 H         1 <0>         0.0484
     61 H23        -4.1342    0.8159  -10.9661 H         1 <0>         0.0697
     62 H24        -2.0334    3.4095   -7.3263 H         1 <0>         0.0843
     63 H25         0.8524    2.2785   -2.7571 H         1 <0>         0.0831
     64 H26        -4.2259    6.3366  -11.1252 H         1 <0>         0.0704
     65 H27        -5.4653    5.4651  -10.2453 H         1 <0>         0.0718
     66 H28         4.0550    5.0981   -8.7294 H         1 <0>         0.0606
     67 H29         4.2035    5.3200   -6.9896 H         1 <0>         0.0458
     68 H30         3.1762    7.3642   -9.0068 H         1 <0>         0.0375
     69 H31         3.2423    7.6502   -7.2709 H         1 <0>         0.0392
     70 H32         1.5916    5.3838   -8.5996 H         1 <0>         0.0606
     71 H33         1.6928    5.6841   -6.8667 H         1 <0>         0.0579
     72 H34         5.7475    7.3513   -7.3332 H         1 <0>         0.0571
     73 H35         5.2173    8.6706   -8.3874 H         1 <0>         0.0503
     74 H36         2.4714    3.0747   -8.2388 H         1 <0>         0.0993
     75 H37        -2.4982    3.3913  -12.3759 H         1 <0>         0.3700
     76 H38        -2.5954    5.1358  -12.4112 H         1 <0>         0.3660
     77 H39         6.7859    7.0740   -9.5225 H         1 <0>         0.3465
     78 H40         5.2151    6.5685  -10.0979 H         1 <0>         0.3446
     79 H41         1.0281    4.3550   -4.8229 H         1 <0>         0.3148
     80 H42         0.2924    2.7728   -6.5286 H         1 <0>         0.3220
@<TRIPOS>BOND
     1    1    2 ar
     2    1    3 ar
     3    2    4 ar
     4    3    5 ar
     5    4    6 ar
     6    5    6 ar
     7    6   23 1
     8    7   22 1
     9    7   29 am
    10    7   35 2
    11    8    9 1
    12    8   28 1
    13    8   36 2
    14    9   33 am
    15    9   37 2
    16   10   20 1
    17   10   34 am
    18   10   38 2
    19   11   12 1
    20   11   13 1
    21   12   14 1
    22   13   15 1
    23   14   21 1
    24   15   21 1
    25   16   18 1
    26   16   20 1
    27   17   19 1
    28   17   22 1
    29   18   30 1
    30   19   30 1
    31   20   29 1
    32   21   33 1
    33   22   23 1
    34   22   31 1
    35   24   25 1
    36   24   26 1
    37   25   27 1
    38   26   28 1
    39   27   32 1
    40   28   34 1
    41   29   30 1
    42    1   39 1
    43    2   40 1
    44    3   41 1
    45    4   42 1
    46    5   43 1
    47   11   44 1
    48   11   45 1
    49   12   46 1
    50   12   47 1
    51   13   48 1
    52   13   49 1
    53   14   50 1
    54   14   51 1
    55   15   52 1
    56   15   53 1
    57   16   54 1
    58   16   55 1
    59   17   56 1
    60   17   57 1
    61   18   58 1
    62   18   59 1
    63   19   60 1
    64   19   61 1
    65   20   62 1
    66   21   63 1
    67   23   64 1
    68   23   65 1
    69   24   66 1
    70   24   67 1
    71   25   68 1
    72   25   69 1
    73   26   70 1
    74   26   71 1
    75   27   72 1
    76   27   73 1
    77   28   74 1
    78   31   75 1
    79   31   76 1
    80   32   77 1
    81   32   78 1
    82   33   79 1
    83   34   80 1
@<TRIPOS>MOLECULE
1a46_ligand_268
   80    83     0     0     0
SMALL
USER_CHARGES

mmff94s_NoEstat = 86.78
@<TRIPOS>ATOM
      1 C1          5.6982   13.0256   -2.9158 C.ar      1 <0>        -0.1300
      2 C2          6.1379   12.4463   -1.7256 C.ar      1 <0>        -0.1323
      3 C3          4.9080   12.2902   -3.7992 C.ar      1 <0>        -0.1309
      4 C4          5.7876   11.1315   -1.4188 C.ar      1 <0>        -0.1275
      5 C5          4.5577   10.9753   -3.4925 C.ar      1 <0>        -0.1272
      6 C6          4.9998   10.4046   -2.3043 C.ar      1 <0>        -0.0843
      7 C7          5.2783    6.5491   -2.1791 C.2       1 <0>         0.6709
      8 C8          5.2358    2.3798    1.5634 C.2       1 <0>         0.4867
      9 C9          4.0737    1.7586    0.8450 C.2       1 <0>         0.5883
     10 C10         6.5256    3.6321   -1.6689 C.2       1 <0>         0.6572
     11 C11         4.8597   -2.3625   -1.7617 C.3       1 <0>        -0.0802
     12 C12         5.2794   -1.0401   -2.3982 C.3       1 <0>        -0.0765
     13 C13         4.2715   -2.1623   -0.3676 C.3       1 <0>        -0.0774
     14 C14         4.1312   -0.0301   -2.4063 C.3       1 <0>        -0.0953
     15 C15         3.1253   -1.1498   -0.3806 C.3       1 <0>        -0.0906
     16 C16         6.3772    3.6983   -4.1707 C.3       1 <0>        -0.0871
     17 C17         5.8129    8.1649   -4.0442 C.3       1 <0>        -0.0716
     18 C18         7.4333    4.7567   -4.4831 C.3       1 <0>         0.1333
     19 C19         6.3652    6.9275   -4.7727 C.3       1 <0>         0.1246
     20 C20         5.7868    4.1659   -2.8575 C.3       1 <0>         0.0606
     21 C21         3.5216    0.1899   -1.0153 C.3       1 <0>         0.1012
     22 C22         5.6591    7.9981   -2.5141 C.3       1 <0>         0.1554
     23 C23         4.6229    8.9902   -1.9743 C.3       1 <0>        -0.0356
     24 C24         7.6485    3.7409    2.8432 C.3       1 <0>        -0.0795
     25 C25         8.2774    4.8743    3.6620 C.3       1 <0>        -0.1203
     26 C26         6.9719    4.2276    1.5544 C.3       1 <0>        -0.0920
     27 C27         8.9284    4.3945    4.9589 C.3       1 <0>         0.1502
     28 C28         6.2906    3.1130    0.7514 C.3       1 <0>         0.0224
     29 N1          6.0028    5.5999   -2.8834 N.am      1 <0>        -0.3553
     30 N2          6.9706    5.9918   -3.8269 N.3       1 <0>        -0.4320
     31 N3          6.9384    8.2454   -1.8330 N.3       1 <0>        -0.9031
     32 N4          9.4866    5.5266    5.6910 N.3       1 <0>        -0.9068
     33 N5          4.4695    0.8988   -0.1529 N.am      1 <0>        -0.5526
     34 N6          5.7762    3.5917   -0.5046 N.am      1 <0>        -0.5576
     35 O1          4.4149    6.2702   -1.3473 O.2       1 <0>        -0.6710
     36 O2          5.3022    2.1819    2.7699 O.2       1 <0>        -0.4901
     37 O3          2.9489    2.0822    1.1900 O.2       1 <0>        -0.5902
     38 O4          7.6924    3.2783   -1.7917 O.2       1 <0>        -0.5833
     39 H1          5.9710   14.0494   -3.1547 H         1 <0>         0.1320
     40 H2          6.7531   13.0191   -1.0378 H         1 <0>         0.1324
     41 H3          4.5659   12.7413   -4.7260 H         1 <0>         0.1328
     42 H4          6.1348   10.6884   -0.4892 H         1 <0>         0.1324
     43 H5          3.9418   10.4100   -4.1868 H         1 <0>         0.1434
     44 H6          4.1159   -2.8528   -2.4019 H         1 <0>         0.0405
     45 H7          5.7231   -3.0350   -1.7048 H         1 <0>         0.0421
     46 H8          6.1342   -0.6256   -1.8502 H         1 <0>         0.0362
     47 H9          5.6182   -1.2183   -3.4252 H         1 <0>         0.0439
     48 H10         3.9090   -3.1215    0.0193 H         1 <0>         0.0350
     49 H11         5.0588   -1.8223    0.3160 H         1 <0>         0.0428
     50 H12         4.4917    0.9217   -2.8150 H         1 <0>         0.0663
     51 H13         3.3477   -0.3907   -3.0849 H         1 <0>         0.0466
     52 H14         2.2839   -1.5748   -0.9427 H         1 <0>         0.0493
     53 H15         2.7736   -0.9912    0.6460 H         1 <0>         0.0520
     54 H16         5.6043    3.7190   -4.9489 H         1 <0>         0.0915
     55 H17         6.7998    2.6898   -4.1286 H         1 <0>         0.0601
     56 H18         6.4556    9.0301   -4.2569 H         1 <0>         0.0688
     57 H19         4.8364    8.4048   -4.4864 H         1 <0>         0.0630
     58 H20         8.3862    4.4645   -4.0255 H         1 <0>         0.0807
     59 H21         7.6091    4.8610   -5.5594 H         1 <0>         0.0380
     60 H22         5.5493    6.4477   -5.3309 H         1 <0>         0.0484
     61 H23         7.1061    7.2537   -5.5124 H         1 <0>         0.0697
     62 H24         4.7253    3.9276   -2.7453 H         1 <0>         0.0843
     63 H25         2.6430    0.8387   -1.0930 H         1 <0>         0.0831
     64 H26         4.5381    8.8614   -0.8937 H         1 <0>         0.0704
     65 H27         3.6462    8.7482   -2.3975 H         1 <0>         0.0718
     66 H28         8.4445    3.0306    2.5915 H         1 <0>         0.0606
     67 H29         6.9275    3.2007    3.4679 H         1 <0>         0.0458
     68 H30         9.0354    5.3625    3.0356 H         1 <0>         0.0375
     69 H31         7.5157    5.6329    3.8824 H         1 <0>         0.0392
     70 H32         7.7210    4.7221    0.9235 H         1 <0>         0.0606
     71 H33         6.2174    4.9831    1.8035 H         1 <0>         0.0579
     72 H34         9.7251    3.6753    4.7403 H         1 <0>         0.0571
     73 H35         8.1937    3.8977    5.5994 H         1 <0>         0.0503
     74 H36         7.0421    2.3587    0.4881 H         1 <0>         0.0993
     75 H37         7.7703    7.9574   -2.2937 H         1 <0>         0.3700
     76 H38         6.9090    8.4964   -0.8720 H         1 <0>         0.3660
     77 H39        10.0430    5.3371    6.4969 H         1 <0>         0.3465
     78 H40         9.1331    6.4373    5.4892 H         1 <0>         0.3446
     79 H41         5.4635    0.7487   -0.2981 H         1 <0>         0.3148
     80 H42         4.8120    3.9176   -0.5391 H         1 <0>         0.3220
@<TRIPOS>BOND
     1    1    2 ar
     2    1    3 ar
     3    2    4 ar
     4    3    5 ar
     5    4    6 ar
     6    5    6 ar
     7    6   23 1
     8    7   22 1
     9    7   29 am
    10    7   35 2
    11    8    9 1
    12    8   28 1
    13    8   36 2
    14    9   33 am
    15    9   37 2
    16   10   20 1
    17   10   34 am
    18   10   38 2
    19   11   12 1
    20   11   13 1
    21   12   14 1
    22   13   15 1
    23   14   21 1
    24   15   21 1
    25   16   18 1
    26   16   20 1
    27   17   19 1
    28   17   22 1
    29   18   30 1
    30   19   30 1
    31   20   29 1
    32   21   33 1
    33   22   23 1
    34   22   31 1
    35   24   25 1
    36   24   26 1
    37   25   27 1
    38   26   28 1
    39   27   32 1
    40   28   34 1
    41   29   30 1
    42    1   39 1
    43    2   40 1
    44    3   41 1
    45    4   42 1
    46    5   43 1
    47   11   44 1
    48   11   45 1
    49   12   46 1
    50   12   47 1
    51   13   48 1
    52   13   49 1
    53   14   50 1
    54   14   51 1
    55   15   52 1
    56   15   53 1
    57   16   54 1
    58   16   55 1
    59   17   56 1
    60   17   57 1
    61   18   58 1
    62   18   59 1
    63   19   60 1
    64   19   61 1
    65   20   62 1
    66   21   63 1
    67   23   64 1
    68   23   65 1
    69   24   66 1
    70   24   67 1
    71   25   68 1
    72   25   69 1
    73   26   70 1
    74   26   71 1
    75   27   72 1
    76   27   73 1
    77   28   74 1
    78   31   75 1
    79   31   76 1
    80   32   77 1
    81   32   78 1
    82   33   79 1
    83   34   80 1
@<TRIPOS>MOLECULE
1a46_ligand_269
   80    83     0     0     0
SMALL
USER_CHARGES

mmff94s_NoEstat = 86.83
@<TRIPOS>ATOM
      1 C1         -6.8775    5.0901  -14.7309 C.ar      1 <0>        -0.1300
      2 C2         -5.5917    5.6294  -14.7709 C.ar      1 <0>        -0.1323
      3 C3         -7.3842    4.5832  -13.5342 C.ar      1 <0>        -0.1309
      4 C4         -4.8126    5.6616  -13.6144 C.ar      1 <0>        -0.1275
      5 C5         -6.6051    4.6154  -12.3777 C.ar      1 <0>        -0.1272
      6 C6         -5.3244    5.1544  -12.4253 C.ar      1 <0>        -0.0843
      7 C7         -2.7863    3.9453   -9.7694 C.2       1 <0>         0.6709
      8 C8          2.7796    3.2097   -6.1637 C.2       1 <0>         0.4867
      9 C9          2.0233    2.5606   -5.0416 C.2       1 <0>         0.5883
     10 C10        -0.0591    2.8141   -8.5012 C.2       1 <0>         0.6572
     11 C11        -1.8951   -1.0364   -4.0810 C.3       1 <0>        -0.0802
     12 C12        -1.8777    0.4244   -3.6398 C.3       1 <0>        -0.0765
     13 C13        -0.4885   -1.6258   -4.1333 C.3       1 <0>        -0.0774
     14 C14        -0.9490    1.2660   -4.5136 C.3       1 <0>        -0.0953
     15 C15         0.4415   -0.7869   -5.0083 C.3       1 <0>        -0.0906
     16 C16        -1.6498    0.9246   -8.0710 C.3       1 <0>        -0.0871
     17 C17        -4.5618    2.6685  -11.0314 C.3       1 <0>        -0.0716
     18 C18        -1.8952    0.4385   -9.4981 C.3       1 <0>         0.1333
     19 C19        -3.9477    1.4257  -10.3641 C.3       1 <0>         0.1246
     20 C20        -1.4789    2.4202   -8.2321 C.3       1 <0>         0.0606
     21 C21         0.4653    0.6767   -4.5542 C.3       1 <0>         0.1012
     22 C22        -3.6459    3.9150  -11.0410 C.3       1 <0>         0.1554
     23 C23        -4.4863    5.1891  -11.1812 C.3       1 <0>        -0.0356
     24 C24         3.6080    5.6033   -7.8654 C.3       1 <0>        -0.0795
     25 C25         3.7321    7.1143   -8.0937 C.3       1 <0>        -0.1203
     26 C26         2.1570    5.1335   -7.6933 C.3       1 <0>        -0.0920
     27 C27         5.1782    7.5875   -8.2387 C.3       1 <0>         0.1502
     28 C28         2.0196    3.6328   -7.4097 C.3       1 <0>         0.0224
     29 N1         -2.2374    2.7178   -9.4321 N.am      1 <0>        -0.3553
     30 N2         -2.5018    1.5760  -10.2111 N.3       1 <0>        -0.4320
     31 N3         -2.6997    3.8562  -12.1647 N.3       1 <0>        -0.9031
     32 N4          5.2178    9.0330   -8.4337 N.3       1 <0>        -0.9068
     33 N5          1.3052    1.4630   -5.4557 N.am      1 <0>        -0.5526
     34 N6          0.6426    3.2153   -7.3763 N.am      1 <0>        -0.5576
     35 O1         -2.5986    4.9773   -9.1254 O.2       1 <0>        -0.6710
     36 O2          3.9949    3.2835   -6.0334 O.2       1 <0>        -0.4901
     37 O3          2.1023    3.0632   -3.9326 O.2       1 <0>        -0.5902
     38 O4          0.3766    2.7593   -9.6452 O.2       1 <0>        -0.5833
     39 H1         -7.4841    5.0650  -15.6314 H         1 <0>         0.1320
     40 H2         -5.1973    6.0241  -15.7027 H         1 <0>         0.1324
     41 H3         -8.3853    4.1632  -13.5032 H         1 <0>         0.1328
     42 H4         -3.8120    6.0837  -13.6551 H         1 <0>         0.1324
     43 H5         -7.0082    4.2181  -11.4499 H         1 <0>         0.1434
     44 H6         -2.5149   -1.6221   -3.3928 H         1 <0>         0.0405
     45 H7         -2.3587   -1.1117   -5.0724 H         1 <0>         0.0421
     46 H8         -2.8933    0.8339   -3.6807 H         1 <0>         0.0362
     47 H9         -1.5496    0.4867   -2.5949 H         1 <0>         0.0439
     48 H10        -0.0783   -1.6844   -3.1176 H         1 <0>         0.0350
     49 H11        -0.5326   -2.6504   -4.5196 H         1 <0>         0.0428
     50 H12        -1.3600    1.3256   -5.5300 H         1 <0>         0.0663
     51 H13        -0.9158    2.2936   -4.1318 H         1 <0>         0.0466
     52 H14         1.4546   -1.2057   -4.9751 H         1 <0>         0.0493
     53 H15         0.1133   -0.8500   -6.0542 H         1 <0>         0.0520
     54 H16        -2.5391    0.7200   -7.4620 H         1 <0>         0.0915
     55 H17        -0.7905    0.4314   -7.6064 H         1 <0>         0.0601
     56 H18        -4.8571    2.4214  -12.0603 H         1 <0>         0.0688
     57 H19        -5.4956    2.9043  -10.5031 H         1 <0>         0.0630
     58 H20        -0.9338    0.2117   -9.9745 H         1 <0>         0.0807
     59 H21        -2.4949   -0.4779   -9.5259 H         1 <0>         0.0380
     60 H22        -4.4307    1.2677   -9.3899 H         1 <0>         0.0484
     61 H23        -4.1761    0.5456  -10.9773 H         1 <0>         0.0697
     62 H24        -1.8462    2.9971   -7.3786 H         1 <0>         0.0843
     63 H25         0.9263    0.7500   -3.5624 H         1 <0>         0.0831
     64 H26        -3.8200    6.0535  -11.1955 H         1 <0>         0.0704
     65 H27        -5.1199    5.2949  -10.2986 H         1 <0>         0.0718
     66 H28         4.0550    5.0981   -8.7294 H         1 <0>         0.0606
     67 H29         4.2035    5.3200   -6.9896 H         1 <0>         0.0458
     68 H30         3.1762    7.3642   -9.0068 H         1 <0>         0.0375
     69 H31         3.2423    7.6502   -7.2709 H         1 <0>         0.0392
     70 H32         1.5916    5.3838   -8.5996 H         1 <0>         0.0606
     71 H33         1.6928    5.6841   -6.8667 H         1 <0>         0.0579
     72 H34         5.6557    7.0931   -9.0916 H         1 <0>         0.0571
     73 H35         5.7562    7.3441   -7.3424 H         1 <0>         0.0503
     74 H36         2.4714    3.0747   -8.2388 H         1 <0>         0.0993
     75 H37        -2.3461    2.9648  -12.4248 H         1 <0>         0.3700
     76 H38        -2.3015    4.7109  -12.4784 H         1 <0>         0.3660
     77 H39         6.0938    9.4532   -8.6597 H         1 <0>         0.3465
     78 H40         4.4297    9.5689   -8.1390 H         1 <0>         0.3446
     79 H41         1.3611    1.1865   -6.4314 H         1 <0>         0.3148
     80 H42         0.1596    3.2148   -6.4798 H         1 <0>         0.3220
@<TRIPOS>BOND
     1    1    2 ar
     2    1    3 ar
     3    2    4 ar
     4    3    5 ar
     5    4    6 ar
     6    5    6 ar
     7    6   23 1
     8    7   22 1
     9    7   29 am
    10    7   35 2
    11    8    9 1
    12    8   28 1
    13    8   36 2
    14    9   33 am
    15    9   37 2
    16   10   20 1
    17   10   34 am
    18   10   38 2
    19   11   12 1
    20   11   13 1
    21   12   14 1
    22   13   15 1
    23   14   21 1
    24   15   21 1
    25   16   18 1
    26   16   20 1
    27   17   19 1
    28   17   22 1
    29   18   30 1
    30   19   30 1
    31   20   29 1
    32   21   33 1
    33   22   23 1
    34   22   31 1
    35   24   25 1
    36   24   26 1
    37   25   27 1
    38   26   28 1
    39   27   32 1
    40   28   34 1
    41   29   30 1
    42    1   39 1
    43    2   40 1
    44    3   41 1
    45    4   42 1
    46    5   43 1
    47   11   44 1
    48   11   45 1
    49   12   46 1
    50   12   47 1
    51   13   48 1
    52   13   49 1
    53   14   50 1
    54   14   51 1
    55   15   52 1
    56   15   53 1
    57   16   54 1
    58   16   55 1
    59   17   56 1
    60   17   57 1
    61   18   58 1
    62   18   59 1
    63   19   60 1
    64   19   61 1
    65   20   62 1
    66   21   63 1
    67   23   64 1
    68   23   65 1
    69   24   66 1
    70   24   67 1
    71   25   68 1
    72   25   69 1
    73   26   70 1
    74   26   71 1
    75   27   72 1
    76   27   73 1
    77   28   74 1
    78   31   75 1
    79   31   76 1
    80   32   77 1
    81   32   78 1
    82   33   79 1
    83   34   80 1
@<TRIPOS>MOLECULE
1a46_ligand_270
   80    83     0     0     0
SMALL
USER_CHARGES

mmff94s_NoEstat = 86.85
@<TRIPOS>ATOM
      1 C1         11.0121    9.2104   -7.9325 C.ar      1 <0>        -0.1300
      2 C2         11.5385    8.8832   -6.6829 C.ar      1 <0>        -0.1323
      3 C3          9.6345    9.1559   -8.1449 C.ar      1 <0>        -0.1309
      4 C4         10.6874    8.5015   -5.6458 C.ar      1 <0>        -0.1275
      5 C5          8.7834    8.7742   -7.1078 C.ar      1 <0>        -0.1272
      6 C6          9.3154    8.4495   -5.8650 C.ar      1 <0>        -0.0843
      7 C7          7.2411    6.0968   -3.6024 C.2       1 <0>         0.6709
      8 C8          5.2358    2.3798    1.5634 C.2       1 <0>         0.4867
      9 C9          5.6522    1.1980    2.3894 C.2       1 <0>         0.5883
     10 C10         6.5256    3.6321   -1.6689 C.2       1 <0>         0.6572
     11 C11         8.2033    2.0193    6.5384 C.3       1 <0>        -0.0802
     12 C12         8.9691    2.0883    5.2198 C.3       1 <0>        -0.0765
     13 C13         6.7223    1.7204    6.3220 C.3       1 <0>        -0.0774
     14 C14         8.7614    0.8261    4.3817 C.3       1 <0>        -0.0953
     15 C15         6.5199    0.4588    5.4816 C.3       1 <0>        -0.0906
     16 C16         5.2113    3.0694   -3.7284 C.3       1 <0>        -0.0871
     17 C17         7.6012    6.0599   -6.1012 C.3       1 <0>        -0.0716
     18 C18         6.3446    2.7580   -4.7039 C.3       1 <0>         0.1333
     19 C19         6.8355    4.7264   -6.0536 C.3       1 <0>         0.1246
     20 C20         5.7868    4.1659   -2.8575 C.3       1 <0>         0.0606
     21 C21         7.2794    0.5030    4.1490 C.3       1 <0>         0.1012
     22 C22         8.1773    6.5224   -4.7422 C.3       1 <0>         0.1554
     23 C23         8.4000    8.0389   -4.7494 C.3       1 <0>        -0.0356
     24 C24         6.0158    5.3379    2.0114 C.3       1 <0>        -0.0795
     25 C25         6.7209    6.4716    2.7653 C.3       1 <0>        -0.1203
     26 C26         6.9719    4.2276    1.5544 C.3       1 <0>        -0.0920
     27 C27         7.4119    6.0077    4.0472 C.3       1 <0>         0.1502
     28 C28         6.2906    3.1130    0.7514 C.3       1 <0>         0.0224
     29 N1          6.7674    4.7991   -3.7183 N.am      1 <0>        -0.3553
     30 N2          7.1280    4.0001   -4.8193 N.3       1 <0>        -0.4320
     31 N3          9.4643    5.8648   -4.4722 N.3       1 <0>        -0.9031
     32 N4          8.0424    7.1400    4.7175 N.3       1 <0>        -0.9068
     33 N5          6.6784    1.4957    3.2556 N.am      1 <0>        -0.5526
     34 N6          5.7762    3.5917   -0.5046 N.am      1 <0>        -0.5576
     35 O1          6.9567    6.8465   -2.6685 O.2       1 <0>        -0.6710
     36 O2          4.0675    2.7325    1.6631 O.2       1 <0>        -0.4901
     37 O3          5.0785    0.1378    2.2009 O.2       1 <0>        -0.5902
     38 O4          7.6924    3.2783   -1.7917 O.2       1 <0>        -0.5833
     39 H1         11.6747    9.5075   -8.7400 H         1 <0>         0.1320
     40 H2         12.6111    8.9257   -6.5176 H         1 <0>         0.1324
     41 H3          9.2248    9.4105   -9.1180 H         1 <0>         0.1328
     42 H4         11.1066    8.2484   -4.6756 H         1 <0>         0.1324
     43 H5          7.7115    8.7346   -7.2826 H         1 <0>         0.1434
     44 H6          8.6419    1.2382    7.1717 H         1 <0>         0.0405
     45 H7          8.3135    2.9662    7.0790 H         1 <0>         0.0421
     46 H8          8.6421    2.9682    4.6527 H         1 <0>         0.0362
     47 H9         10.0379    2.2218    5.4226 H         1 <0>         0.0439
     48 H10         6.2267    1.5983    7.2920 H         1 <0>         0.0350
     49 H11         6.2452    2.5755    5.8281 H         1 <0>         0.0428
     50 H12         9.2774    0.9428    3.4210 H         1 <0>         0.0663
     51 H13         9.2336   -0.0211    4.8951 H         1 <0>         0.0466
     52 H14         6.8632   -0.4096    6.0583 H         1 <0>         0.0493
     53 H15         5.4478    0.3156    5.3000 H         1 <0>         0.0520
     54 H16         4.3507    3.4578   -4.2870 H         1 <0>         0.0915
     55 H17         4.8908    2.1856   -3.1683 H         1 <0>         0.0601
     56 H18         8.4120    5.9885   -6.8390 H         1 <0>         0.0688
     57 H19         6.9149    6.8257   -6.4876 H         1 <0>         0.0630
     58 H20         6.9926    1.9855   -4.2725 H         1 <0>         0.0807
     59 H21         5.9735    2.3729   -5.6602 H         1 <0>         0.0380
     60 H22         5.7592    4.9288   -6.1435 H         1 <0>         0.0484
     61 H23         7.1185    4.1245   -6.9255 H         1 <0>         0.0697
     62 H24         5.0406    4.8864   -2.5107 H         1 <0>         0.0843
     63 H25         7.1851   -0.4595    3.6354 H         1 <0>         0.0831
     64 H26         8.8151    8.3408   -3.7861 H         1 <0>         0.0704
     65 H27         7.4343    8.5386   -4.8464 H         1 <0>         0.0718
     66 H28         5.2579    4.9142    2.6804 H         1 <0>         0.0606
     67 H29         5.4809    5.7546    1.1500 H         1 <0>         0.0458
     68 H30         7.4668    6.9122    2.0910 H         1 <0>         0.0375
     69 H31         5.9973    7.2642    2.9945 H         1 <0>         0.0392
     70 H32         7.4599    3.7926    2.4354 H         1 <0>         0.0606
     71 H33         7.7645    4.6634    0.9347 H         1 <0>         0.0579
     72 H34         8.1719    5.2532    3.8170 H         1 <0>         0.0571
     73 H35         6.6895    5.5581    4.7347 H         1 <0>         0.0503
     74 H36         7.0421    2.3587    0.4881 H         1 <0>         0.0993
     75 H37         9.5764    4.9261   -4.7778 H         1 <0>         0.3700
     76 H38        10.0811    6.3037   -3.8286 H         1 <0>         0.3660
     77 H39         8.6273    6.9547    5.5039 H         1 <0>         0.3465
     78 H40         7.7128    8.0567    4.5024 H         1 <0>         0.3446
     79 H41         7.0352    2.4464    3.2766 H         1 <0>         0.3148
     80 H42         4.8120    3.9176   -0.5391 H         1 <0>         0.3220
@<TRIPOS>BOND
     1    1    2 ar
     2    1    3 ar
     3    2    4 ar
     4    3    5 ar
     5    4    6 ar
     6    5    6 ar
     7    6   23 1
     8    7   22 1
     9    7   29 am
    10    7   35 2
    11    8    9 1
    12    8   28 1
    13    8   36 2
    14    9   33 am
    15    9   37 2
    16   10   20 1
    17   10   34 am
    18   10   38 2
    19   11   12 1
    20   11   13 1
    21   12   14 1
    22   13   15 1
    23   14   21 1
    24   15   21 1
    25   16   18 1
    26   16   20 1
    27   17   19 1
    28   17   22 1
    29   18   30 1
    30   19   30 1
    31   20   29 1
    32   21   33 1
    33   22   23 1
    34   22   31 1
    35   24   25 1
    36   24   26 1
    37   25   27 1
    38   26   28 1
    39   27   32 1
    40   28   34 1
    41   29   30 1
    42    1   39 1
    43    2   40 1
    44    3   41 1
    45    4   42 1
    46    5   43 1
    47   11   44 1
    48   11   45 1
    49   12   46 1
    50   12   47 1
    51   13   48 1
    52   13   49 1
    53   14   50 1
    54   14   51 1
    55   15   52 1
    56   15   53 1
    57   16   54 1
    58   16   55 1
    59   17   56 1
    60   17   57 1
    61   18   58 1
    62   18   59 1
    63   19   60 1
    64   19   61 1
    65   20   62 1
    66   21   63 1
    67   23   64 1
    68   23   65 1
    69   24   66 1
    70   24   67 1
    71   25   68 1
    72   25   69 1
    73   26   70 1
    74   26   71 1
    75   27   72 1
    76   27   73 1
    77   28   74 1
    78   31   75 1
    79   31   76 1
    80   32   77 1
    81   32   78 1
    82   33   79 1
    83   34   80 1
@<TRIPOS>MOLECULE
1a46_ligand_271
   80    83     0     0     0
SMALL
USER_CHARGES

mmff94s_NoEstat = 86.85
@<TRIPOS>ATOM
      1 C1         11.0121    9.2104   -7.9325 C.ar      1 <0>        -0.1300
      2 C2         11.5385    8.8832   -6.6829 C.ar      1 <0>        -0.1323
      3 C3          9.6345    9.1559   -8.1449 C.ar      1 <0>        -0.1309
      4 C4         10.6874    8.5015   -5.6458 C.ar      1 <0>        -0.1275
      5 C5          8.7834    8.7742   -7.1078 C.ar      1 <0>        -0.1272
      6 C6          9.3154    8.4495   -5.8650 C.ar      1 <0>        -0.0843
      7 C7          7.2411    6.0968   -3.6024 C.2       1 <0>         0.6709
      8 C8          5.2358    2.3798    1.5634 C.2       1 <0>         0.4867
      9 C9          5.6522    1.1980    2.3894 C.2       1 <0>         0.5883
     10 C10         6.5256    3.6321   -1.6689 C.2       1 <0>         0.6572
     11 C11        10.1110    1.3481    4.5092 C.3       1 <0>        -0.0802
     12 C12         9.6462    0.6914    3.2120 C.3       1 <0>        -0.0765
     13 C13         8.9753    2.0862    5.2128 C.3       1 <0>        -0.0774
     14 C14         8.4366   -0.2156    3.4426 C.3       1 <0>        -0.0953
     15 C15         7.7675    1.1758    5.4389 C.3       1 <0>        -0.0906
     16 C16         5.2113    3.0694   -3.7284 C.3       1 <0>        -0.0871
     17 C17         7.6012    6.0599   -6.1012 C.3       1 <0>        -0.0716
     18 C18         6.3446    2.7580   -4.7039 C.3       1 <0>         0.1333
     19 C19         6.8355    4.7264   -6.0536 C.3       1 <0>         0.1246
     20 C20         5.7868    4.1659   -2.8575 C.3       1 <0>         0.0606
     21 C21         7.2794    0.5030    4.1490 C.3       1 <0>         0.1012
     22 C22         8.1773    6.5224   -4.7422 C.3       1 <0>         0.1554
     23 C23         8.4000    8.0389   -4.7494 C.3       1 <0>        -0.0356
     24 C24         6.0158    5.3379    2.0114 C.3       1 <0>        -0.0795
     25 C25         6.7209    6.4716    2.7653 C.3       1 <0>        -0.1203
     26 C26         6.9719    4.2276    1.5544 C.3       1 <0>        -0.0920
     27 C27         5.7742    7.5909    3.1979 C.3       1 <0>         0.1502
     28 C28         6.2906    3.1130    0.7514 C.3       1 <0>         0.0224
     29 N1          6.7674    4.7991   -3.7183 N.am      1 <0>        -0.3553
     30 N2          7.1280    4.0001   -4.8193 N.3       1 <0>        -0.4320
     31 N3          9.4643    5.8648   -4.4722 N.3       1 <0>        -0.9031
     32 N4          4.7531    7.0666    4.0988 N.3       1 <0>        -0.9068
     33 N5          6.6784    1.4957    3.2556 N.am      1 <0>        -0.5526
     34 N6          5.7762    3.5917   -0.5046 N.am      1 <0>        -0.5576
     35 O1          6.9567    6.8465   -2.6685 O.2       1 <0>        -0.6710
     36 O2          4.0675    2.7325    1.6631 O.2       1 <0>        -0.4901
     37 O3          5.0785    0.1378    2.2009 O.2       1 <0>        -0.5902
     38 O4          7.6924    3.2783   -1.7917 O.2       1 <0>        -0.5833
     39 H1         11.6747    9.5075   -8.7400 H         1 <0>         0.1320
     40 H2         12.6111    8.9257   -6.5176 H         1 <0>         0.1324
     41 H3          9.2248    9.4105   -9.1180 H         1 <0>         0.1328
     42 H4         11.1066    8.2484   -4.6756 H         1 <0>         0.1324
     43 H5          7.7115    8.7346   -7.2826 H         1 <0>         0.1434
     44 H6         10.5143    0.5795    5.1802 H         1 <0>         0.0405
     45 H7         10.9289    2.0459    4.2969 H         1 <0>         0.0421
     46 H8          9.3936    1.4674    2.4794 H         1 <0>         0.0362
     47 H9         10.4670    0.1056    2.7825 H         1 <0>         0.0439
     48 H10         9.3291    2.4721    6.1757 H         1 <0>         0.0350
     49 H11         8.6777    2.9552    4.6136 H         1 <0>         0.0428
     50 H12         8.0993   -0.6177    2.4795 H         1 <0>         0.0663
     51 H13         8.7485   -1.0728    4.0530 H         1 <0>         0.0466
     52 H14         8.0408    0.3987    6.1641 H         1 <0>         0.0493
     53 H15         6.9561    1.7598    5.8899 H         1 <0>         0.0520
     54 H16         4.3507    3.4578   -4.2870 H         1 <0>         0.0915
     55 H17         4.8908    2.1856   -3.1683 H         1 <0>         0.0601
     56 H18         8.4120    5.9885   -6.8390 H         1 <0>         0.0688
     57 H19         6.9149    6.8257   -6.4876 H         1 <0>         0.0630
     58 H20         6.9926    1.9855   -4.2725 H         1 <0>         0.0807
     59 H21         5.9735    2.3729   -5.6602 H         1 <0>         0.0380
     60 H22         5.7592    4.9288   -6.1435 H         1 <0>         0.0484
     61 H23         7.1185    4.1245   -6.9255 H         1 <0>         0.0697
     62 H24         5.0406    4.8864   -2.5107 H         1 <0>         0.0843
     63 H25         6.4839   -0.2127    4.3813 H         1 <0>         0.0831
     64 H26         8.8151    8.3408   -3.7861 H         1 <0>         0.0704
     65 H27         7.4343    8.5386   -4.8464 H         1 <0>         0.0718
     66 H28         5.2579    4.9142    2.6804 H         1 <0>         0.0606
     67 H29         5.4809    5.7546    1.1500 H         1 <0>         0.0458
     68 H30         7.2000    6.0392    3.6534 H         1 <0>         0.0375
     69 H31         7.5258    6.8807    2.1417 H         1 <0>         0.0392
     70 H32         7.4599    3.7926    2.4354 H         1 <0>         0.0606
     71 H33         7.7645    4.6634    0.9347 H         1 <0>         0.0579
     72 H34         5.2908    8.0386    2.3228 H         1 <0>         0.0571
     73 H35         6.3225    8.3806    3.7198 H         1 <0>         0.0503
     74 H36         7.0421    2.3587    0.4881 H         1 <0>         0.0993
     75 H37         9.5764    4.9261   -4.7778 H         1 <0>         0.3700
     76 H38        10.0811    6.3037   -3.8286 H         1 <0>         0.3660
     77 H39         4.0028    7.6695    4.3608 H         1 <0>         0.3465
     78 H40         4.9421    6.2118    4.5770 H         1 <0>         0.3446
     79 H41         7.0352    2.4464    3.2766 H         1 <0>         0.3148
     80 H42         4.8120    3.9176   -0.5391 H         1 <0>         0.3220
@<TRIPOS>BOND
     1    1    2 ar
     2    1    3 ar
     3    2    4 ar
     4    3    5 ar
     5    4    6 ar
     6    5    6 ar
     7    6   23 1
     8    7   22 1
     9    7   29 am
    10    7   35 2
    11    8    9 1
    12    8   28 1
    13    8   36 2
    14    9   33 am
    15    9   37 2
    16   10   20 1
    17   10   34 am
    18   10   38 2
    19   11   12 1
    20   11   13 1
    21   12   14 1
    22   13   15 1
    23   14   21 1
    24   15   21 1
    25   16   18 1
    26   16   20 1
    27   17   19 1
    28   17   22 1
    29   18   30 1
    30   19   30 1
    31   20   29 1
    32   21   33 1
    33   22   23 1
    34   22   31 1
    35   24   25 1
    36   24   26 1
    37   25   27 1
    38   26   28 1
    39   27   32 1
    40   28   34 1
    41   29   30 1
    42    1   39 1
    43    2   40 1
    44    3   41 1
    45    4   42 1
    46    5   43 1
    47   11   44 1
    48   11   45 1
    49   12   46 1
    50   12   47 1
    51   13   48 1
    52   13   49 1
    53   14   50 1
    54   14   51 1
    55   15   52 1
    56   15   53 1
    57   16   54 1
    58   16   55 1
    59   17   56 1
    60   17   57 1
    61   18   58 1
    62   18   59 1
    63   19   60 1
    64   19   61 1
    65   20   62 1
    66   21   63 1
    67   23   64 1
    68   23   65 1
    69   24   66 1
    70   24   67 1
    71   25   68 1
    72   25   69 1
    73   26   70 1
    74   26   71 1
    75   27   72 1
    76   27   73 1
    77   28   74 1
    78   31   75 1
    79   31   76 1
    80   32   77 1
    81   32   78 1
    82   33   79 1
    83   34   80 1
@<TRIPOS>MOLECULE
1a46_ligand_272
   80    83     0     0     0
SMALL
USER_CHARGES

mmff94s_NoEstat = 86.86
@<TRIPOS>ATOM
      1 C1         -4.6917   -3.0051  -14.5357 C.ar      1 <0>        -0.1300
      2 C2         -3.4233   -2.4813  -14.7856 C.ar      1 <0>        -0.1323
      3 C3         -5.5209   -2.4030  -13.5893 C.ar      1 <0>        -0.1309
      4 C4         -2.9840   -1.3555  -14.0891 C.ar      1 <0>        -0.1275
      5 C5         -5.0816   -1.2772  -12.8927 C.ar      1 <0>        -0.1272
      6 C6         -3.8160   -0.7608  -13.1471 C.ar      1 <0>        -0.0843
      7 C7         -2.1349    1.2928  -10.3339 C.2       1 <0>         0.6709
      8 C8          2.7796    3.2097   -6.1637 C.2       1 <0>         0.4867
      9 C9          2.2829    2.0299   -5.3801 C.2       1 <0>         0.5883
     10 C10         0.1051    2.2921   -8.2580 C.2       1 <0>         0.6572
     11 C11        -0.0951    0.7326   -0.7029 C.3       1 <0>        -0.0802
     12 C12        -1.0596    1.0010   -1.8547 C.3       1 <0>        -0.0765
     13 C13         1.2544    0.2267   -1.2045 C.3       1 <0>        -0.0774
     14 C14        -0.4535    1.9500   -2.8873 C.3       1 <0>        -0.0953
     15 C15         1.8633    1.1742   -2.2367 C.3       1 <0>        -0.0906
     16 C16        -1.6127    1.3005   -6.7245 C.3       1 <0>        -0.0871
     17 C17        -3.5515   -0.7936  -10.2088 C.3       1 <0>        -0.0716
     18 C18        -1.4826   -0.1787   -7.0821 C.3       1 <0>         0.1333
     19 C19        -3.1872   -0.7856   -8.7142 C.3       1 <0>         0.1246
     20 C20        -1.3485    2.0056   -8.0379 C.3       1 <0>         0.0606
     21 C21         0.8958    1.4320   -3.3972 C.3       1 <0>         0.1012
     22 C22        -2.6206    0.0571  -11.1047 C.3       1 <0>         0.1554
     23 C23        -3.3435    0.4502  -12.3978 C.3       1 <0>        -0.0356
     24 C24         3.6080    5.6033   -7.8654 C.3       1 <0>        -0.0795
     25 C25         3.7321    7.1143   -8.0937 C.3       1 <0>        -0.1203
     26 C26         2.1570    5.1335   -7.6933 C.3       1 <0>        -0.0920
     27 C27         5.1782    7.5875   -8.2387 C.3       1 <0>         0.1502
     28 C28         2.0196    3.6328   -7.4097 C.3       1 <0>         0.0224
     29 N1         -1.7438    1.0253   -9.0311 N.am      1 <0>        -0.3553
     30 N2         -1.8314   -0.2790   -8.5099 N.3       1 <0>        -0.4320
     31 N3         -1.4094   -0.6969  -11.4599 N.3       1 <0>        -0.9031
     32 N4          5.2178    9.0330   -8.4337 N.3       1 <0>        -0.9068
     33 N5          1.4800    2.3978   -4.3257 N.am      1 <0>        -0.5526
     34 N6          0.6426    3.2153   -7.3763 N.am      1 <0>        -0.5576
     35 O1         -2.0889    2.4118  -10.8445 O.2       1 <0>        -0.6710
     36 O2          3.8302    3.7133   -5.7870 O.2       1 <0>        -0.4901
     37 O3          2.6437    0.9181   -5.7301 O.2       1 <0>        -0.5902
     38 O4          0.7038    1.7190   -9.1607 O.2       1 <0>        -0.5833
     39 H1         -5.0337   -3.8817  -15.0780 H         1 <0>         0.1320
     40 H2         -2.7778   -2.9502  -15.5226 H         1 <0>         0.1324
     41 H3         -6.5084   -2.8111  -13.3947 H         1 <0>         0.1328
     42 H4         -1.9943   -0.9544  -14.2904 H         1 <0>         0.1324
     43 H5         -5.7344   -0.8149  -12.1571 H         1 <0>         0.1434
     44 H6          0.0525    1.6559   -0.1288 H         1 <0>         0.0405
     45 H7         -0.5335   -0.0027   -0.0187 H         1 <0>         0.0421
     46 H8         -1.3211    0.0528   -2.3405 H         1 <0>         0.0362
     47 H9         -1.9903    1.4276   -1.4643 H         1 <0>         0.0439
     48 H10         1.9424    0.1112   -0.3593 H         1 <0>         0.0350
     49 H11         1.1281   -0.7669   -1.6521 H         1 <0>         0.0428
     50 H12        -1.1492    2.0737   -3.7259 H         1 <0>         0.0663
     51 H13        -0.3282    2.9445   -2.4392 H         1 <0>         0.0466
     52 H14         2.1264    2.1227   -1.7504 H         1 <0>         0.0493
     53 H15         2.8004    0.7499   -2.6170 H         1 <0>         0.0520
     54 H16        -2.6402    1.5041   -6.3986 H         1 <0>         0.0915
     55 H17        -0.9296    1.5953   -5.9220 H         1 <0>         0.0601
     56 H18        -3.5677   -1.8293  -10.5746 H         1 <0>         0.0688
     57 H19        -4.5835   -0.4292  -10.3032 H         1 <0>         0.0630
     58 H20        -0.4377   -0.4900   -6.9643 H         1 <0>         0.0807
     59 H21        -2.0868   -0.8173   -6.4283 H         1 <0>         0.0380
     60 H22        -3.9204   -0.1736   -8.1708 H         1 <0>         0.0484
     61 H23        -3.2749   -1.8064   -8.3232 H         1 <0>         0.0697
     62 H24        -1.9101    2.9367   -8.1555 H         1 <0>         0.0843
     63 H25         0.7468    0.5083   -3.9681 H         1 <0>         0.0831
     64 H26        -2.6659    1.0404  -13.0174 H         1 <0>         0.0704
     65 H27        -4.1870    1.0971  -12.1499 H         1 <0>         0.0718
     66 H28         4.0550    5.0981   -8.7294 H         1 <0>         0.0606
     67 H29         4.2035    5.3200   -6.9896 H         1 <0>         0.0458
     68 H30         3.1762    7.3642   -9.0068 H         1 <0>         0.0375
     69 H31         3.2423    7.6502   -7.2709 H         1 <0>         0.0392
     70 H32         1.5916    5.3838   -8.5996 H         1 <0>         0.0606
     71 H33         1.6928    5.6841   -6.8667 H         1 <0>         0.0579
     72 H34         5.6557    7.0931   -9.0916 H         1 <0>         0.0571
     73 H35         5.7562    7.3441   -7.3424 H         1 <0>         0.0503
     74 H36         2.4714    3.0747   -8.2388 H         1 <0>         0.0993
     75 H37        -1.0328   -1.3138  -10.7781 H         1 <0>         0.3700
     76 H38        -0.9095   -0.4127  -12.2703 H         1 <0>         0.3660
     77 H39         6.0938    9.4532   -8.6597 H         1 <0>         0.3465
     78 H40         4.4297    9.5689   -8.1390 H         1 <0>         0.3446
     79 H41         1.2844    3.3846   -4.1861 H         1 <0>         0.3148
     80 H42         0.0323    3.6193   -6.6682 H         1 <0>         0.3220
@<TRIPOS>BOND
     1    1    2 ar
     2    1    3 ar
     3    2    4 ar
     4    3    5 ar
     5    4    6 ar
     6    5    6 ar
     7    6   23 1
     8    7   22 1
     9    7   29 am
    10    7   35 2
    11    8    9 1
    12    8   28 1
    13    8   36 2
    14    9   33 am
    15    9   37 2
    16   10   20 1
    17   10   34 am
    18   10   38 2
    19   11   12 1
    20   11   13 1
    21   12   14 1
    22   13   15 1
    23   14   21 1
    24   15   21 1
    25   16   18 1
    26   16   20 1
    27   17   19 1
    28   17   22 1
    29   18   30 1
    30   19   30 1
    31   20   29 1
    32   21   33 1
    33   22   23 1
    34   22   31 1
    35   24   25 1
    36   24   26 1
    37   25   27 1
    38   26   28 1
    39   27   32 1
    40   28   34 1
    41   29   30 1
    42    1   39 1
    43    2   40 1
    44    3   41 1
    45    4   42 1
    46    5   43 1
    47   11   44 1
    48   11   45 1
    49   12   46 1
    50   12   47 1
    51   13   48 1
    52   13   49 1
    53   14   50 1
    54   14   51 1
    55   15   52 1
    56   15   53 1
    57   16   54 1
    58   16   55 1
    59   17   56 1
    60   17   57 1
    61   18   58 1
    62   18   59 1
    63   19   60 1
    64   19   61 1
    65   20   62 1
    66   21   63 1
    67   23   64 1
    68   23   65 1
    69   24   66 1
    70   24   67 1
    71   25   68 1
    72   25   69 1
    73   26   70 1
    74   26   71 1
    75   27   72 1
    76   27   73 1
    77   28   74 1
    78   31   75 1
    79   31   76 1
    80   32   77 1
    81   32   78 1
    82   33   79 1
    83   34   80 1
@<TRIPOS>MOLECULE
1a46_ligand_273
   80    83     0     0     0
SMALL
USER_CHARGES

mmff94s_NoEstat = 86.86
@<TRIPOS>ATOM
      1 C1         -2.6445   10.2618   -2.2387 C.ar      1 <0>        -0.1300
      2 C2         -2.3767    9.6884   -0.9957 C.ar      1 <0>        -0.1323
      3 C3         -2.1497    9.6701   -3.4009 C.ar      1 <0>        -0.1309
      4 C4         -1.6141    8.5233   -0.9148 C.ar      1 <0>        -0.1275
      5 C5         -1.3871    8.5049   -3.3201 C.ar      1 <0>        -0.1272
      6 C6         -1.1243    7.9391   -2.0776 C.ar      1 <0>        -0.0843
      7 C7          2.0326    5.7272   -1.7627 C.2       1 <0>         0.6709
      8 C8          5.2358    2.3798    1.5634 C.2       1 <0>         0.4867
      9 C9          4.0737    1.7586    0.8450 C.2       1 <0>         0.5883
     10 C10         4.7954    4.5647   -0.6048 C.2       1 <0>         0.6572
     11 C11         4.9178   -0.1813   -3.6183 C.3       1 <0>        -0.0802
     12 C12         4.3601    1.1806   -3.2131 C.3       1 <0>        -0.0765
     13 C13         5.2798   -1.0327   -2.4042 C.3       1 <0>        -0.0774
     14 C14         3.1836    1.0419   -2.2460 C.3       1 <0>        -0.0953
     15 C15         4.1009   -1.1664   -1.4392 C.3       1 <0>        -0.0906
     16 C16         5.5346    5.5870   -2.7713 C.3       1 <0>        -0.0871
     17 C17         1.6625    7.8714   -3.0437 C.3       1 <0>        -0.0716
     18 C18         5.3303    7.0689   -2.4625 C.3       1 <0>         0.1333
     19 C19         3.1731    7.8019   -3.3266 C.3       1 <0>         0.1246
     20 C20         4.4137    4.9104   -2.0113 C.3       1 <0>         0.0606
     21 C21         3.5216    0.1899   -1.0153 C.3       1 <0>         0.1012
     22 C22         1.1885    7.0064   -1.8522 C.3       1 <0>         0.1554
     23 C23        -0.3040    6.6858   -1.9906 C.3       1 <0>        -0.0356
     24 C24         7.6485    3.7409    2.8432 C.3       1 <0>        -0.0795
     25 C25         8.7834    2.7415    2.5910 C.3       1 <0>        -0.1203
     26 C26         6.9719    4.2276    1.5544 C.3       1 <0>        -0.0920
     27 C27         9.4756    2.2762    3.8718 C.3       1 <0>         0.1502
     28 C28         6.2906    3.1130    0.7514 C.3       1 <0>         0.0224
     29 N1          3.3921    5.9372   -1.9343 N.am      1 <0>        -0.3553
     30 N2          3.8913    7.2279   -2.1903 N.3       1 <0>        -0.4320
     31 N3          1.3958    7.7147   -0.5806 N.3       1 <0>        -0.9031
     32 N4         10.5526    1.3450    3.5523 N.3       1 <0>        -0.9068
     33 N5          4.4695    0.8988   -0.1529 N.am      1 <0>        -0.5526
     34 N6          5.7762    3.5917   -0.5046 N.am      1 <0>        -0.5576
     35 O1          1.5345    4.6231   -1.5437 O.2       1 <0>        -0.6710
     36 O2          5.3022    2.1819    2.7699 O.2       1 <0>        -0.4901
     37 O3          2.9489    2.0822    1.1900 O.2       1 <0>        -0.5902
     38 O4          4.2448    5.1367    0.3286 O.2       1 <0>        -0.5833
     39 H1         -3.2382   11.1691   -2.3016 H         1 <0>         0.1320
     40 H2         -2.7620   10.1493   -0.0908 H         1 <0>         0.1324
     41 H3         -2.3582   10.1168   -4.3687 H         1 <0>         0.1328
     42 H4         -1.4106    8.0836    0.0580 H         1 <0>         0.1324
     43 H5         -1.0058    8.0510   -4.2309 H         1 <0>         0.1434
     44 H6          4.1729   -0.7122   -4.2240 H         1 <0>         0.0405
     45 H7          5.8027   -0.0446   -4.2501 H         1 <0>         0.0421
     46 H8          5.1542    1.7772   -2.7482 H         1 <0>         0.0362
     47 H9          4.0371    1.7257   -4.1075 H         1 <0>         0.0439
     48 H10         5.5975   -2.0280   -2.7352 H         1 <0>         0.0350
     49 H11         6.1350   -0.5837   -1.8849 H         1 <0>         0.0428
     50 H12         2.8539    2.0404   -1.9345 H         1 <0>         0.0663
     51 H13         2.3414    0.5806   -2.7774 H         1 <0>         0.0466
     52 H14         3.3114   -1.7547   -1.9241 H         1 <0>         0.0493
     53 H15         4.4214   -1.7321   -0.5559 H         1 <0>         0.0520
     54 H16         5.4011    5.4209   -3.8475 H         1 <0>         0.0915
     55 H17         6.5319    5.2374   -2.4876 H         1 <0>         0.0601
     56 H18         1.3705    8.9173   -2.8778 H         1 <0>         0.0688
     57 H19         1.1370    7.5576   -3.9559 H         1 <0>         0.0630
     58 H20         5.8802    7.3284   -1.5498 H         1 <0>         0.0807
     59 H21         5.7080    7.7145   -3.2631 H         1 <0>         0.0380
     60 H22         3.3395    7.2079   -4.2360 H         1 <0>         0.0484
     61 H23         3.5406    8.8134   -3.5374 H         1 <0>         0.0697
     62 H24         4.0335    4.0099   -2.5019 H         1 <0>         0.0843
     63 H25         2.6216    0.0369   -0.4106 H         1 <0>         0.0831
     64 H26        -0.6181    6.0842   -1.1357 H         1 <0>         0.0704
     65 H27        -0.4536    6.0709   -2.8800 H         1 <0>         0.0718
     66 H28         6.9060    3.2476    3.4811 H         1 <0>         0.0606
     67 H29         8.0377    4.5939    3.4113 H         1 <0>         0.0458
     68 H30         8.3582    1.8719    2.0729 H         1 <0>         0.0375
     69 H31         9.5177    3.1863    1.9076 H         1 <0>         0.0392
     70 H32         7.7210    4.7221    0.9235 H         1 <0>         0.0606
     71 H33         6.2174    4.9831    1.8035 H         1 <0>         0.0579
     72 H34         8.7558    1.7847    4.5352 H         1 <0>         0.0571
     73 H35         9.9032    3.1267    4.4108 H         1 <0>         0.0503
     74 H36         7.0421    2.3587    0.4881 H         1 <0>         0.0993
     75 H37         2.1998    8.2929   -0.4996 H         1 <0>         0.3700
     76 H38         0.8492    7.4324    0.1998 H         1 <0>         0.3660
     77 H39        11.0073    0.8756    4.3059 H         1 <0>         0.3465
     78 H40        10.9302    1.3617    2.6291 H         1 <0>         0.3446
     79 H41         5.4635    0.7487   -0.2981 H         1 <0>         0.3148
     80 H42         6.1527    3.1949   -1.3636 H         1 <0>         0.3220
@<TRIPOS>BOND
     1    1    2 ar
     2    1    3 ar
     3    2    4 ar
     4    3    5 ar
     5    4    6 ar
     6    5    6 ar
     7    6   23 1
     8    7   22 1
     9    7   29 am
    10    7   35 2
    11    8    9 1
    12    8   28 1
    13    8   36 2
    14    9   33 am
    15    9   37 2
    16   10   20 1
    17   10   34 am
    18   10   38 2
    19   11   12 1
    20   11   13 1
    21   12   14 1
    22   13   15 1
    23   14   21 1
    24   15   21 1
    25   16   18 1
    26   16   20 1
    27   17   19 1
    28   17   22 1
    29   18   30 1
    30   19   30 1
    31   20   29 1
    32   21   33 1
    33   22   23 1
    34   22   31 1
    35   24   25 1
    36   24   26 1
    37   25   27 1
    38   26   28 1
    39   27   32 1
    40   28   34 1
    41   29   30 1
    42    1   39 1
    43    2   40 1
    44    3   41 1
    45    4   42 1
    46    5   43 1
    47   11   44 1
    48   11   45 1
    49   12   46 1
    50   12   47 1
    51   13   48 1
    52   13   49 1
    53   14   50 1
    54   14   51 1
    55   15   52 1
    56   15   53 1
    57   16   54 1
    58   16   55 1
    59   17   56 1
    60   17   57 1
    61   18   58 1
    62   18   59 1
    63   19   60 1
    64   19   61 1
    65   20   62 1
    66   21   63 1
    67   23   64 1
    68   23   65 1
    69   24   66 1
    70   24   67 1
    71   25   68 1
    72   25   69 1
    73   26   70 1
    74   26   71 1
    75   27   72 1
    76   27   73 1
    77   28   74 1
    78   31   75 1
    79   31   76 1
    80   32   77 1
    81   32   78 1
    82   33   79 1
    83   34   80 1
@<TRIPOS>MOLECULE
1a46_ligand_274
   80    83     0     0     0
SMALL
USER_CHARGES

mmff94s_NoEstat = 86.87
@<TRIPOS>ATOM
      1 C1          5.9504   -1.3642  -10.1903 C.ar      1 <0>        -0.1300
      2 C2          6.6765   -1.8241   -9.0918 C.ar      1 <0>        -0.1323
      3 C3          5.5463   -0.0305  -10.2504 C.ar      1 <0>        -0.1309
      4 C4          6.9984   -0.9504   -8.0532 C.ar      1 <0>        -0.1275
      5 C5          5.8681    0.8432   -9.2119 C.ar      1 <0>        -0.1272
      6 C6          6.5921    0.3776   -8.1201 C.ar      1 <0>        -0.0843
      7 C7          6.1974    2.2868   -4.7798 C.2       1 <0>         0.6709
      8 C8          5.2358    2.3798    1.5634 C.2       1 <0>         0.4867
      9 C9          5.6522    1.1980    2.3894 C.2       1 <0>         0.5883
     10 C10         5.7098    2.8119   -1.6475 C.2       1 <0>         0.6572
     11 C11         8.2033    2.0193    6.5384 C.3       1 <0>        -0.0802
     12 C12         8.9691    2.0883    5.2198 C.3       1 <0>        -0.0765
     13 C13         6.7223    1.7204    6.3220 C.3       1 <0>        -0.0774
     14 C14         8.7614    0.8261    4.3817 C.3       1 <0>        -0.0953
     15 C15         6.5199    0.4588    5.4816 C.3       1 <0>        -0.0906
     16 C16         3.6723    3.8570   -2.6681 C.3       1 <0>        -0.0871
     17 C17         4.4858    1.7161   -6.5463 C.3       1 <0>        -0.0716
     18 C18         2.9535    2.6133   -3.1875 C.3       1 <0>         0.1333
     19 C19         3.4659    2.2898   -5.5476 C.3       1 <0>         0.1246
     20 C20         5.1372    3.5153   -2.8394 C.3       1 <0>         0.0606
     21 C21         7.2794    0.5030    4.1490 C.3       1 <0>         0.1012
     22 C22         5.8481    1.3265   -5.9256 C.3       1 <0>         0.1554
     23 C23         6.9383    1.3175   -7.0029 C.3       1 <0>        -0.0356
     24 C24         6.0158    5.3379    2.0114 C.3       1 <0>        -0.0795
     25 C25         6.7209    6.4716    2.7653 C.3       1 <0>        -0.1203
     26 C26         6.9719    4.2276    1.5544 C.3       1 <0>        -0.0920
     27 C27         5.7742    7.5909    3.1979 C.3       1 <0>         0.1502
     28 C28         6.2906    3.1130    0.7514 C.3       1 <0>         0.0224
     29 N1          5.1345    2.5635   -3.9339 N.am      1 <0>        -0.3553
     30 N2          3.8653    2.0037   -4.1710 N.3       1 <0>        -0.4320
     31 N3          5.7803   -0.0123   -5.3216 N.3       1 <0>        -0.9031
     32 N4          6.5168    8.6391    3.8900 N.3       1 <0>        -0.9068
     33 N5          6.6784    1.4957    3.2556 N.am      1 <0>        -0.5526
     34 N6          5.7762    3.5917   -0.5046 N.am      1 <0>        -0.5576
     35 O1          7.3278    2.7504   -4.6301 O.2       1 <0>        -0.6710
     36 O2          4.0675    2.7325    1.6631 O.2       1 <0>        -0.4901
     37 O3          5.0785    0.1378    2.2009 O.2       1 <0>        -0.5902
     38 O4          6.0670    1.6440   -1.7490 O.2       1 <0>        -0.5833
     39 H1          5.6997   -2.0446  -10.9989 H         1 <0>         0.1320
     40 H2          6.9911   -2.8626   -9.0451 H         1 <0>         0.1324
     41 H3          4.9808    0.3274  -11.1059 H         1 <0>         0.1328
     42 H4          7.5644   -1.3176   -7.2012 H         1 <0>         0.1324
     43 H5          5.5489    1.8806   -9.2673 H         1 <0>         0.1434
     44 H6          8.6419    1.2382    7.1717 H         1 <0>         0.0405
     45 H7          8.3135    2.9662    7.0790 H         1 <0>         0.0421
     46 H8          8.6421    2.9682    4.6527 H         1 <0>         0.0362
     47 H9         10.0379    2.2218    5.4226 H         1 <0>         0.0439
     48 H10         6.2267    1.5983    7.2920 H         1 <0>         0.0350
     49 H11         6.2452    2.5755    5.8281 H         1 <0>         0.0428
     50 H12         9.2774    0.9428    3.4210 H         1 <0>         0.0663
     51 H13         9.2336   -0.0211    4.8951 H         1 <0>         0.0466
     52 H14         6.8632   -0.4096    6.0583 H         1 <0>         0.0493
     53 H15         5.4478    0.3156    5.3000 H         1 <0>         0.0520
     54 H16         3.4181    4.7133   -3.3051 H         1 <0>         0.0915
     55 H17         3.3944    4.0971   -1.6373 H         1 <0>         0.0601
     56 H18         4.0497    0.8441   -7.0524 H         1 <0>         0.0688
     57 H19         4.6431    2.4675   -7.3320 H         1 <0>         0.0630
     58 H20         2.8170    1.9026   -2.3635 H         1 <0>         0.0807
     59 H21         1.9588    2.8453   -3.5837 H         1 <0>         0.0380
     60 H22         3.3744    3.3723   -5.7123 H         1 <0>         0.0484
     61 H23         2.4818    1.8533   -5.7569 H         1 <0>         0.0697
     62 H24         5.7646    4.3810   -3.0694 H         1 <0>         0.0843
     63 H25         7.1851   -0.4595    3.6354 H         1 <0>         0.0831
     64 H26         7.8868    1.0311   -6.5450 H         1 <0>         0.0704
     65 H27         7.0672    2.3317   -7.3854 H         1 <0>         0.0718
     66 H28         5.2579    4.9142    2.6804 H         1 <0>         0.0606
     67 H29         5.4809    5.7546    1.1500 H         1 <0>         0.0458
     68 H30         7.2000    6.0392    3.6534 H         1 <0>         0.0375
     69 H31         7.5258    6.8807    2.1417 H         1 <0>         0.0392
     70 H32         7.4599    3.7926    2.4354 H         1 <0>         0.0606
     71 H33         7.7645    4.6634    0.9347 H         1 <0>         0.0579
     72 H34         4.9986    7.1962    3.8630 H         1 <0>         0.0571
     73 H35         5.2784    8.0349    2.3297 H         1 <0>         0.0503
     74 H36         7.0421    2.3587    0.4881 H         1 <0>         0.0993
     75 H37         4.9287   -0.2795   -4.8849 H         1 <0>         0.3700
     76 H38         6.6336   -0.5056   -5.1950 H         1 <0>         0.3660
     77 H39         5.9996    9.3711    4.3277 H         1 <0>         0.3465
     78 H40         7.4997    8.7018    3.7315 H         1 <0>         0.3446
     79 H41         7.0352    2.4464    3.2766 H         1 <0>         0.3148
     80 H42         5.4441    4.5531   -0.5557 H         1 <0>         0.3220
@<TRIPOS>BOND
     1    1    2 ar
     2    1    3 ar
     3    2    4 ar
     4    3    5 ar
     5    4    6 ar
     6    5    6 ar
     7    6   23 1
     8    7   22 1
     9    7   29 am
    10    7   35 2
    11    8    9 1
    12    8   28 1
    13    8   36 2
    14    9   33 am
    15    9   37 2
    16   10   20 1
    17   10   34 am
    18   10   38 2
    19   11   12 1
    20   11   13 1
    21   12   14 1
    22   13   15 1
    23   14   21 1
    24   15   21 1
    25   16   18 1
    26   16   20 1
    27   17   19 1
    28   17   22 1
    29   18   30 1
    30   19   30 1
    31   20   29 1
    32   21   33 1
    33   22   23 1
    34   22   31 1
    35   24   25 1
    36   24   26 1
    37   25   27 1
    38   26   28 1
    39   27   32 1
    40   28   34 1
    41   29   30 1
    42    1   39 1
    43    2   40 1
    44    3   41 1
    45    4   42 1
    46    5   43 1
    47   11   44 1
    48   11   45 1
    49   12   46 1
    50   12   47 1
    51   13   48 1
    52   13   49 1
    53   14   50 1
    54   14   51 1
    55   15   52 1
    56   15   53 1
    57   16   54 1
    58   16   55 1
    59   17   56 1
    60   17   57 1
    61   18   58 1
    62   18   59 1
    63   19   60 1
    64   19   61 1
    65   20   62 1
    66   21   63 1
    67   23   64 1
    68   23   65 1
    69   24   66 1
    70   24   67 1
    71   25   68 1
    72   25   69 1
    73   26   70 1
    74   26   71 1
    75   27   72 1
    76   27   73 1
    77   28   74 1
    78   31   75 1
    79   31   76 1
    80   32   77 1
    81   32   78 1
    82   33   79 1
    83   34   80 1
@<TRIPOS>MOLECULE
1a46_ligand_275
   80    83     0     0     0
SMALL
USER_CHARGES

mmff94s_NoEstat = 86.87
@<TRIPOS>ATOM
      1 C1         -3.7305   -5.9204  -11.3537 C.ar      1 <0>        -0.1300
      2 C2         -2.4262   -5.5183  -11.6410 C.ar      1 <0>        -0.1323
      3 C3         -4.6750   -4.9808  -10.9404 C.ar      1 <0>        -0.1309
      4 C4         -2.0662   -4.1766  -11.5149 C.ar      1 <0>        -0.1275
      5 C5         -4.3150   -3.6391  -10.8142 C.ar      1 <0>        -0.1272
      6 C6         -3.0129   -3.2458  -11.1023 C.ar      1 <0>        -0.0843
      7 C7         -1.7147   -0.0189   -9.4111 C.2       1 <0>         0.6709
      8 C8          2.7796    3.2097   -6.1637 C.2       1 <0>         0.4867
      9 C9          4.2189    2.8058   -6.2975 C.2       1 <0>         0.5883
     10 C10         0.2181    1.9581   -7.7739 C.2       1 <0>         0.6572
     11 C11         9.2399    4.6670   -5.5627 C.3       1 <0>        -0.0802
     12 C12         8.6483    4.1468   -6.8697 C.3       1 <0>        -0.0765
     13 C13         8.6396    3.9588   -4.3515 C.3       1 <0>        -0.0774
     14 C14         7.1228    4.2300   -6.8703 C.3       1 <0>        -0.0953
     15 C15         7.1141    4.0425   -4.3490 C.3       1 <0>        -0.0906
     16 C16        -1.7326    1.7367   -6.2145 C.3       1 <0>        -0.0871
     17 C17        -3.1871   -1.8587   -8.5042 C.3       1 <0>        -0.0716
     18 C18        -1.5889    0.2745   -5.7969 C.3       1 <0>         0.1333
     19 C19        -3.0480   -1.1203   -7.1617 C.3       1 <0>         0.1246
     20 C20        -1.2590    1.7411   -7.6524 C.3       1 <0>         0.0606
     21 C21         6.5237    3.5079   -5.6584 C.3       1 <0>         0.1012
     22 C22        -2.1125   -1.4947   -9.5555 C.3       1 <0>         0.1554
     23 C23        -2.6257   -1.8026  -10.9666 C.3       1 <0>        -0.0356
     24 C24         3.6080    5.6033   -7.8654 C.3       1 <0>        -0.0795
     25 C25         3.7321    7.1143   -8.0937 C.3       1 <0>        -0.1203
     26 C26         2.1570    5.1335   -7.6933 C.3       1 <0>        -0.0920
     27 C27         5.1782    7.5875   -8.2387 C.3       1 <0>         0.1502
     28 C28         2.0196    3.6328   -7.4097 C.3       1 <0>         0.0224
     29 N1         -1.5278    0.3875   -8.0990 N.am      1 <0>        -0.3553
     30 N2         -1.7250   -0.5121   -7.0349 N.3       1 <0>        -0.4320
     31 N3         -0.8818   -2.2667   -9.3297 N.3       1 <0>        -0.9031
     32 N4          5.2178    9.0330   -8.4337 N.3       1 <0>        -0.9068
     33 N5          5.0712    3.6706   -5.6514 N.am      1 <0>        -0.5526
     34 N6          0.6426    3.2153   -7.3763 N.am      1 <0>        -0.5576
     35 O1         -1.5651    0.7213  -10.3831 O.2       1 <0>        -0.6710
     36 O2          2.3266    3.2509   -5.0269 O.2       1 <0>        -0.4901
     37 O3          4.4746    1.8096   -6.9540 O.2       1 <0>        -0.5902
     38 O4          0.9290    1.0536   -8.1959 O.2       1 <0>        -0.5833
     39 H1         -4.0108   -6.9651  -11.4519 H         1 <0>         0.1320
     40 H2         -1.6909   -6.2500  -11.9629 H         1 <0>         0.1324
     41 H3         -5.6906   -5.2940  -10.7166 H         1 <0>         0.1328
     42 H4         -1.0476   -3.8726  -11.7408 H         1 <0>         0.1324
     43 H5         -5.0575   -2.9141  -10.4915 H         1 <0>         0.1434
     44 H6         10.3270    4.5289   -5.5692 H         1 <0>         0.0405
     45 H7          9.0546    5.7452   -5.4829 H         1 <0>         0.0421
     46 H8          9.0491    4.7235   -7.7109 H         1 <0>         0.0362
     47 H9          8.9560    3.1048   -7.0209 H         1 <0>         0.0439
     48 H10         8.9466    2.9057   -4.3541 H         1 <0>         0.0350
     49 H11         9.0343    4.4042   -3.4313 H         1 <0>         0.0428
     50 H12         6.8154    5.2841   -6.8688 H         1 <0>         0.0663
     51 H13         6.7309    3.7942   -7.7974 H         1 <0>         0.0466
     52 H14         6.7161    3.4744   -3.4994 H         1 <0>         0.0493
     53 H15         6.8065    5.0855   -4.1968 H         1 <0>         0.0520
     54 H16        -2.7915    2.0208   -6.1758 H         1 <0>         0.0915
     55 H17        -1.1685    2.4118   -5.5637 H         1 <0>         0.0601
     56 H18        -3.1756   -2.9428   -8.3269 H         1 <0>         0.0688
     57 H19        -4.1842   -1.6345   -8.9071 H         1 <0>         0.0630
     58 H20        -0.5812    0.1087   -5.3971 H         1 <0>         0.0807
     59 H21        -2.2993   -0.0031   -5.0104 H         1 <0>         0.0380
     60 H22        -3.8377   -0.3598   -7.0886 H         1 <0>         0.0484
     61 H23        -3.2188   -1.8335   -6.3463 H         1 <0>         0.0697
     62 H24        -1.7729    2.4744   -8.2803 H         1 <0>         0.0843
     63 H25         6.7120    2.4309   -5.7378 H         1 <0>         0.0831
     64 H26        -1.8489   -1.5475  -11.6898 H         1 <0>         0.0704
     65 H27        -3.4798   -1.1578  -11.1818 H         1 <0>         0.0718
     66 H28         4.0550    5.0981   -8.7294 H         1 <0>         0.0606
     67 H29         4.2035    5.3200   -6.9896 H         1 <0>         0.0458
     68 H30         3.1762    7.3642   -9.0068 H         1 <0>         0.0375
     69 H31         3.2423    7.6502   -7.2709 H         1 <0>         0.0392
     70 H32         1.5916    5.3838   -8.5996 H         1 <0>         0.0606
     71 H33         1.6928    5.6841   -6.8667 H         1 <0>         0.0579
     72 H34         5.6557    7.0931   -9.0916 H         1 <0>         0.0571
     73 H35         5.7562    7.3441   -7.3424 H         1 <0>         0.0503
     74 H36         2.4714    3.0747   -8.2388 H         1 <0>         0.0993
     75 H37        -0.6260   -2.4640   -8.3900 H         1 <0>         0.3700
     76 H38        -0.2603   -2.3800  -10.0968 H         1 <0>         0.3660
     77 H39         6.0938    9.4532   -8.6597 H         1 <0>         0.3465
     78 H40         4.4297    9.5689   -8.1390 H         1 <0>         0.3446
     79 H41         4.6735    4.4573   -5.1469 H         1 <0>         0.3148
     80 H42        -0.0552    3.8781   -7.0434 H         1 <0>         0.3220
@<TRIPOS>BOND
     1    1    2 ar
     2    1    3 ar
     3    2    4 ar
     4    3    5 ar
     5    4    6 ar
     6    5    6 ar
     7    6   23 1
     8    7   22 1
     9    7   29 am
    10    7   35 2
    11    8    9 1
    12    8   28 1
    13    8   36 2
    14    9   33 am
    15    9   37 2
    16   10   20 1
    17   10   34 am
    18   10   38 2
    19   11   12 1
    20   11   13 1
    21   12   14 1
    22   13   15 1
    23   14   21 1
    24   15   21 1
    25   16   18 1
    26   16   20 1
    27   17   19 1
    28   17   22 1
    29   18   30 1
    30   19   30 1
    31   20   29 1
    32   21   33 1
    33   22   23 1
    34   22   31 1
    35   24   25 1
    36   24   26 1
    37   25   27 1
    38   26   28 1
    39   27   32 1
    40   28   34 1
    41   29   30 1
    42    1   39 1
    43    2   40 1
    44    3   41 1
    45    4   42 1
    46    5   43 1
    47   11   44 1
    48   11   45 1
    49   12   46 1
    50   12   47 1
    51   13   48 1
    52   13   49 1
    53   14   50 1
    54   14   51 1
    55   15   52 1
    56   15   53 1
    57   16   54 1
    58   16   55 1
    59   17   56 1
    60   17   57 1
    61   18   58 1
    62   18   59 1
    63   19   60 1
    64   19   61 1
    65   20   62 1
    66   21   63 1
    67   23   64 1
    68   23   65 1
    69   24   66 1
    70   24   67 1
    71   25   68 1
    72   25   69 1
    73   26   70 1
    74   26   71 1
    75   27   72 1
    76   27   73 1
    77   28   74 1
    78   31   75 1
    79   31   76 1
    80   32   77 1
    81   32   78 1
    82   33   79 1
    83   34   80 1
@<TRIPOS>MOLECULE
1a46_ligand_276
   80    83     0     0     0
SMALL
USER_CHARGES

mmff94s_NoEstat = 86.93
@<TRIPOS>ATOM
      1 C1         -5.9518    1.0529  -15.7574 C.ar      1 <0>        -0.1300
      2 C2         -4.7078    1.6646  -15.9115 C.ar      1 <0>        -0.1323
      3 C3         -6.6077    1.1063  -14.5275 C.ar      1 <0>        -0.1309
      4 C4         -4.1196    2.3297  -14.8357 C.ar      1 <0>        -0.1275
      5 C5         -6.0195    1.7714  -13.4517 C.ar      1 <0>        -0.1272
      6 C6         -4.7793    2.3787  -13.6128 C.ar      1 <0>        -0.0843
      7 C7         -2.6173    2.8751  -10.4447 C.2       1 <0>         0.6709
      8 C8          2.7796    3.2097   -6.1637 C.2       1 <0>         0.4867
      9 C9          4.2189    2.8058   -6.2975 C.2       1 <0>         0.5883
     10 C10        -0.0591    2.8141   -8.5012 C.2       1 <0>         0.6572
     11 C11         9.2399    4.6670   -5.5627 C.3       1 <0>        -0.0802
     12 C12         8.6483    4.1468   -6.8697 C.3       1 <0>        -0.0765
     13 C13         8.6396    3.9588   -4.3515 C.3       1 <0>        -0.0774
     14 C14         7.1228    4.2300   -6.8703 C.3       1 <0>        -0.0953
     15 C15         7.1141    4.0425   -4.3490 C.3       1 <0>        -0.0906
     16 C16        -1.5879    1.1654   -7.3921 C.3       1 <0>        -0.0871
     17 C17        -4.1019    0.9486  -11.1228 C.3       1 <0>        -0.0716
     18 C18        -1.5823    0.0424   -8.4274 C.3       1 <0>         0.1333
     19 C19        -3.5290    0.2485   -9.8784 C.3       1 <0>         0.1246
     20 C20        -1.4789    2.4202   -8.2321 C.3       1 <0>         0.0606
     21 C21         6.5237    3.5079   -5.6584 C.3       1 <0>         0.1012
     22 C22        -3.2673    2.1480  -11.6303 C.3       1 <0>         0.1554
     23 C23        -4.1466    3.0941  -12.4556 C.3       1 <0>        -0.0356
     24 C24         3.6080    5.6033   -7.8654 C.3       1 <0>        -0.0795
     25 C25         3.7321    7.1143   -8.0937 C.3       1 <0>        -0.1203
     26 C26         2.1570    5.1335   -7.6933 C.3       1 <0>        -0.0920
     27 C27         5.1782    7.5875   -8.2387 C.3       1 <0>         0.1502
     28 C28         2.0196    3.6328   -7.4097 C.3       1 <0>         0.0224
     29 N1         -2.0587    2.0261   -9.5019 N.am      1 <0>        -0.3553
     30 N2         -2.1349    0.6298   -9.6602 N.3       1 <0>        -0.4320
     31 N3         -2.1572    1.6877  -12.4773 N.3       1 <0>        -0.9031
     32 N4          5.2178    9.0330   -8.4337 N.3       1 <0>        -0.9068
     33 N5          5.0712    3.6706   -5.6514 N.am      1 <0>        -0.5526
     34 N6          0.6426    3.2153   -7.3763 N.am      1 <0>        -0.5576
     35 O1         -2.5899    4.1027  -10.3594 O.2       1 <0>        -0.6710
     36 O2          2.3266    3.2509   -5.0269 O.2       1 <0>        -0.4901
     37 O3          4.4746    1.8096   -6.9540 O.2       1 <0>        -0.5902
     38 O4          0.3766    2.7593   -9.6452 O.2       1 <0>        -0.5833
     39 H1         -6.4098    0.5350  -16.5951 H         1 <0>         0.1320
     40 H2         -4.1972    1.6230  -16.8692 H         1 <0>         0.1324
     41 H3         -7.5763    0.6298  -14.4076 H         1 <0>         0.1328
     42 H4         -3.1501    2.8034  -14.9651 H         1 <0>         0.1324
     43 H5         -6.5379    1.8077  -12.4972 H         1 <0>         0.1434
     44 H6         10.3270    4.5289   -5.5692 H         1 <0>         0.0405
     45 H7          9.0546    5.7452   -5.4829 H         1 <0>         0.0421
     46 H8          9.0491    4.7235   -7.7109 H         1 <0>         0.0362
     47 H9          8.9560    3.1048   -7.0209 H         1 <0>         0.0439
     48 H10         8.9466    2.9057   -4.3541 H         1 <0>         0.0350
     49 H11         9.0343    4.4042   -3.4313 H         1 <0>         0.0428
     50 H12         6.8154    5.2841   -6.8688 H         1 <0>         0.0663
     51 H13         6.7309    3.7942   -7.7974 H         1 <0>         0.0466
     52 H14         6.7161    3.4744   -3.4994 H         1 <0>         0.0493
     53 H15         6.8065    5.0855   -4.1968 H         1 <0>         0.0520
     54 H16        -2.5475    1.1615   -6.8606 H         1 <0>         0.0915
     55 H17        -0.7842    1.0569   -6.6575 H         1 <0>         0.0601
     56 H18        -4.2204    0.2148  -11.9317 H         1 <0>         0.0688
     57 H19        -5.1178    1.2870  -10.8778 H         1 <0>         0.0630
     58 H20        -0.5477   -0.2605   -8.6286 H         1 <0>         0.0807
     59 H21        -2.1179   -0.8467   -8.0766 H         1 <0>         0.0380
     60 H22        -4.1468    0.5063   -9.0071 H         1 <0>         0.0484
     61 H23        -3.6100   -0.8367  -10.0142 H         1 <0>         0.0697
     62 H24        -2.0054    3.2790   -7.8063 H         1 <0>         0.0843
     63 H25         6.7120    2.4309   -5.7378 H         1 <0>         0.0831
     64 H26        -3.5359    3.9262  -12.8108 H         1 <0>         0.0704
     65 H27        -4.9137    3.5213  -11.8072 H         1 <0>         0.0718
     66 H28         4.0550    5.0981   -8.7294 H         1 <0>         0.0606
     67 H29         4.2035    5.3200   -6.9896 H         1 <0>         0.0458
     68 H30         3.1762    7.3642   -9.0068 H         1 <0>         0.0375
     69 H31         3.2423    7.6502   -7.2709 H         1 <0>         0.0392
     70 H32         1.5916    5.3838   -8.5996 H         1 <0>         0.0606
     71 H33         1.6928    5.6841   -6.8667 H         1 <0>         0.0579
     72 H34         5.6557    7.0931   -9.0916 H         1 <0>         0.0571
     73 H35         5.7562    7.3441   -7.3424 H         1 <0>         0.0503
     74 H36         2.4714    3.0747   -8.2388 H         1 <0>         0.0993
     75 H37        -1.7180    0.8294  -12.2371 H         1 <0>         0.3700
     76 H38        -1.7642    2.3382  -13.1175 H         1 <0>         0.3660
     77 H39         6.0938    9.4532   -8.6597 H         1 <0>         0.3465
     78 H40         4.4297    9.5689   -8.1390 H         1 <0>         0.3446
     79 H41         4.6735    4.4573   -5.1469 H         1 <0>         0.3148
     80 H42         0.1596    3.2148   -6.4798 H         1 <0>         0.3220
@<TRIPOS>BOND
     1    1    2 ar
     2    1    3 ar
     3    2    4 ar
     4    3    5 ar
     5    4    6 ar
     6    5    6 ar
     7    6   23 1
     8    7   22 1
     9    7   29 am
    10    7   35 2
    11    8    9 1
    12    8   28 1
    13    8   36 2
    14    9   33 am
    15    9   37 2
    16   10   20 1
    17   10   34 am
    18   10   38 2
    19   11   12 1
    20   11   13 1
    21   12   14 1
    22   13   15 1
    23   14   21 1
    24   15   21 1
    25   16   18 1
    26   16   20 1
    27   17   19 1
    28   17   22 1
    29   18   30 1
    30   19   30 1
    31   20   29 1
    32   21   33 1
    33   22   23 1
    34   22   31 1
    35   24   25 1
    36   24   26 1
    37   25   27 1
    38   26   28 1
    39   27   32 1
    40   28   34 1
    41   29   30 1
    42    1   39 1
    43    2   40 1
    44    3   41 1
    45    4   42 1
    46    5   43 1
    47   11   44 1
    48   11   45 1
    49   12   46 1
    50   12   47 1
    51   13   48 1
    52   13   49 1
    53   14   50 1
    54   14   51 1
    55   15   52 1
    56   15   53 1
    57   16   54 1
    58   16   55 1
    59   17   56 1
    60   17   57 1
    61   18   58 1
    62   18   59 1
    63   19   60 1
    64   19   61 1
    65   20   62 1
    66   21   63 1
    67   23   64 1
    68   23   65 1
    69   24   66 1
    70   24   67 1
    71   25   68 1
    72   25   69 1
    73   26   70 1
    74   26   71 1
    75   27   72 1
    76   27   73 1
    77   28   74 1
    78   31   75 1
    79   31   76 1
    80   32   77 1
    81   32   78 1
    82   33   79 1
    83   34   80 1
@<TRIPOS>MOLECULE
1a46_ligand_277
   80    83     0     0     0
SMALL
USER_CHARGES

mmff94s_NoEstat = 87.03
@<TRIPOS>ATOM
      1 C1          5.6982   13.0256   -2.9158 C.ar      1 <0>        -0.1300
      2 C2          6.1379   12.4463   -1.7256 C.ar      1 <0>        -0.1323
      3 C3          4.9080   12.2902   -3.7992 C.ar      1 <0>        -0.1309
      4 C4          5.7876   11.1315   -1.4188 C.ar      1 <0>        -0.1275
      5 C5          4.5577   10.9753   -3.4925 C.ar      1 <0>        -0.1272
      6 C6          4.9998   10.4046   -2.3043 C.ar      1 <0>        -0.0843
      7 C7          5.2783    6.5491   -2.1791 C.2       1 <0>         0.6709
      8 C8          5.2358    2.3798    1.5634 C.2       1 <0>         0.4867
      9 C9          4.0737    1.7586    0.8450 C.2       1 <0>         0.5883
     10 C10         6.5256    3.6321   -1.6689 C.2       1 <0>         0.6572
     11 C11         0.1833    0.2896    3.5104 C.3       1 <0>        -0.0802
     12 C12         1.4091   -0.6199    3.4998 C.3       1 <0>        -0.0765
     13 C13         0.4030    1.5512    2.6797 C.3       1 <0>        -0.0774
     14 C14         1.8531   -0.9493    2.0740 C.3       1 <0>        -0.0953
     15 C15         0.8490    1.2166    1.2557 C.3       1 <0>        -0.0906
     16 C16         6.3772    3.6983   -4.1707 C.3       1 <0>        -0.0871
     17 C17         5.8129    8.1649   -4.0442 C.3       1 <0>        -0.0716
     18 C18         7.4333    4.7567   -4.4831 C.3       1 <0>         0.1333
     19 C19         6.3652    6.9275   -4.7727 C.3       1 <0>         0.1246
     20 C20         5.7868    4.1659   -2.8575 C.3       1 <0>         0.0606
     21 C21         2.0813    0.3030    1.2170 C.3       1 <0>         0.1012
     22 C22         5.6591    7.9981   -2.5141 C.3       1 <0>         0.1554
     23 C23         4.6229    8.9902   -1.9743 C.3       1 <0>        -0.0356
     24 C24         6.0158    5.3379    2.0114 C.3       1 <0>        -0.0795
     25 C25         6.7209    6.4716    2.7653 C.3       1 <0>        -0.1203
     26 C26         6.9719    4.2276    1.5544 C.3       1 <0>        -0.0920
     27 C27         5.7742    7.5909    3.1979 C.3       1 <0>         0.1502
     28 C28         6.2906    3.1130    0.7514 C.3       1 <0>         0.0224
     29 N1          6.0028    5.5999   -2.8834 N.am      1 <0>        -0.3553
     30 N2          6.9706    5.9918   -3.8269 N.3       1 <0>        -0.4320
     31 N3          6.9384    8.2454   -1.8330 N.3       1 <0>        -0.9031
     32 N4          4.7531    7.0666    4.0988 N.3       1 <0>        -0.9068
     33 N5          3.2649    1.0281    1.6841 N.am      1 <0>        -0.5526
     34 N6          5.7762    3.5917   -0.5046 N.am      1 <0>        -0.5576
     35 O1          4.4149    6.2702   -1.3473 O.2       1 <0>        -0.6710
     36 O2          5.3022    2.1819    2.7699 O.2       1 <0>        -0.4901
     37 O3          3.9822    1.9394   -0.3582 O.2       1 <0>        -0.5902
     38 O4          7.6924    3.2783   -1.7917 O.2       1 <0>        -0.5833
     39 H1          5.9710   14.0494   -3.1547 H         1 <0>         0.1320
     40 H2          6.7531   13.0191   -1.0378 H         1 <0>         0.1324
     41 H3          4.5659   12.7413   -4.7260 H         1 <0>         0.1328
     42 H4          6.1348   10.6884   -0.4892 H         1 <0>         0.1324
     43 H5          3.9418   10.4100   -4.1868 H         1 <0>         0.1434
     44 H6         -0.6791   -0.2600    3.1134 H         1 <0>         0.0405
     45 H7         -0.0626    0.5654    4.5421 H         1 <0>         0.0421
     46 H8          2.2298   -0.1338    4.0410 H         1 <0>         0.0362
     47 H9          1.1821   -1.5481    4.0367 H         1 <0>         0.0439
     48 H10        -0.5242    2.1347    2.6460 H         1 <0>         0.0350
     49 H11         1.1568    2.1822    3.1658 H         1 <0>         0.0428
     50 H12         2.7685   -1.5522    2.1121 H         1 <0>         0.0663
     51 H13         1.0834   -1.5703    1.5983 H         1 <0>         0.0466
     52 H14         0.0215    0.7202    0.7329 H         1 <0>         0.0493
     53 H15         1.0533    2.1483    0.7143 H         1 <0>         0.0520
     54 H16         5.6043    3.7190   -4.9489 H         1 <0>         0.0915
     55 H17         6.7998    2.6898   -4.1286 H         1 <0>         0.0601
     56 H18         6.4556    9.0301   -4.2569 H         1 <0>         0.0688
     57 H19         4.8364    8.4048   -4.4864 H         1 <0>         0.0630
     58 H20         8.3862    4.4645   -4.0255 H         1 <0>         0.0807
     59 H21         7.6091    4.8610   -5.5594 H         1 <0>         0.0380
     60 H22         5.5493    6.4477   -5.3309 H         1 <0>         0.0484
     61 H23         7.1061    7.2537   -5.5124 H         1 <0>         0.0697
     62 H24         4.7253    3.9276   -2.7453 H         1 <0>         0.0843
     63 H25         2.2959    0.0119    0.1834 H         1 <0>         0.0831
     64 H26         4.5381    8.8614   -0.8937 H         1 <0>         0.0704
     65 H27         3.6462    8.7482   -2.3975 H         1 <0>         0.0718
     66 H28         5.2579    4.9142    2.6804 H         1 <0>         0.0606
     67 H29         5.4809    5.7546    1.1500 H         1 <0>         0.0458
     68 H30         7.2000    6.0392    3.6534 H         1 <0>         0.0375
     69 H31         7.5258    6.8807    2.1417 H         1 <0>         0.0392
     70 H32         7.4599    3.7926    2.4354 H         1 <0>         0.0606
     71 H33         7.7645    4.6634    0.9347 H         1 <0>         0.0579
     72 H34         5.2908    8.0386    2.3228 H         1 <0>         0.0571
     73 H35         6.3225    8.3806    3.7198 H         1 <0>         0.0503
     74 H36         7.0421    2.3587    0.4881 H         1 <0>         0.0993
     75 H37         7.7703    7.9574   -2.2937 H         1 <0>         0.3700
     76 H38         6.9090    8.4964   -0.8720 H         1 <0>         0.3660
     77 H39         4.0028    7.6695    4.3608 H         1 <0>         0.3465
     78 H40         4.9421    6.2118    4.5770 H         1 <0>         0.3446
     79 H41         3.4989    0.9899    2.6717 H         1 <0>         0.3148
     80 H42         4.8120    3.9176   -0.5391 H         1 <0>         0.3220
@<TRIPOS>BOND
     1    1    2 ar
     2    1    3 ar
     3    2    4 ar
     4    3    5 ar
     5    4    6 ar
     6    5    6 ar
     7    6   23 1
     8    7   22 1
     9    7   29 am
    10    7   35 2
    11    8    9 1
    12    8   28 1
    13    8   36 2
    14    9   33 am
    15    9   37 2
    16   10   20 1
    17   10   34 am
    18   10   38 2
    19   11   12 1
    20   11   13 1
    21   12   14 1
    22   13   15 1
    23   14   21 1
    24   15   21 1
    25   16   18 1
    26   16   20 1
    27   17   19 1
    28   17   22 1
    29   18   30 1
    30   19   30 1
    31   20   29 1
    32   21   33 1
    33   22   23 1
    34   22   31 1
    35   24   25 1
    36   24   26 1
    37   25   27 1
    38   26   28 1
    39   27   32 1
    40   28   34 1
    41   29   30 1
    42    1   39 1
    43    2   40 1
    44    3   41 1
    45    4   42 1
    46    5   43 1
    47   11   44 1
    48   11   45 1
    49   12   46 1
    50   12   47 1
    51   13   48 1
    52   13   49 1
    53   14   50 1
    54   14   51 1
    55   15   52 1
    56   15   53 1
    57   16   54 1
    58   16   55 1
    59   17   56 1
    60   17   57 1
    61   18   58 1
    62   18   59 1
    63   19   60 1
    64   19   61 1
    65   20   62 1
    66   21   63 1
    67   23   64 1
    68   23   65 1
    69   24   66 1
    70   24   67 1
    71   25   68 1
    72   25   69 1
    73   26   70 1
    74   26   71 1
    75   27   72 1
    76   27   73 1
    77   28   74 1
    78   31   75 1
    79   31   76 1
    80   32   77 1
    81   32   78 1
    82   33   79 1
    83   34   80 1
@<TRIPOS>MOLECULE
1a46_ligand_278
   80    83     0     0     0
SMALL
USER_CHARGES

mmff94s_NoEstat = 87.04
@<TRIPOS>ATOM
      1 C1         11.1945    5.3647   -9.7731 C.ar      1 <0>        -0.1300
      2 C2         11.8337    5.1154   -8.5586 C.ar      1 <0>        -0.1323
      3 C3          9.8873    5.8513   -9.7863 C.ar      1 <0>        -0.1309
      4 C4         11.1656    5.3526   -7.3573 C.ar      1 <0>        -0.1275
      5 C5          9.2192    6.0884   -8.5850 C.ar      1 <0>        -0.1272
      6 C6          9.8628    5.8375   -7.3783 C.ar      1 <0>        -0.0843
      7 C7          7.6425    5.1042   -4.2977 C.2       1 <0>         0.6709
      8 C8          5.2358    2.3798    1.5634 C.2       1 <0>         0.4867
      9 C9          5.6522    1.1980    2.3894 C.2       1 <0>         0.5883
     10 C10         6.5256    3.6321   -1.6689 C.2       1 <0>         0.6572
     11 C11         8.2033    2.0193    6.5384 C.3       1 <0>        -0.0802
     12 C12         8.9691    2.0883    5.2198 C.3       1 <0>        -0.0765
     13 C13         6.7223    1.7204    6.3220 C.3       1 <0>        -0.0774
     14 C14         8.7614    0.8261    4.3817 C.3       1 <0>        -0.0953
     15 C15         6.5199    0.4588    5.4816 C.3       1 <0>        -0.0906
     16 C16         4.6595    3.2577   -3.3009 C.3       1 <0>        -0.0871
     17 C17         7.3760    4.3986   -6.7074 C.3       1 <0>        -0.0716
     18 C18         5.3367    2.3027   -4.2819 C.3       1 <0>         0.1333
     19 C19         6.2012    3.5529   -6.1864 C.3       1 <0>         0.1246
     20 C20         5.7868    4.1659   -2.8575 C.3       1 <0>         0.0606
     21 C21         7.2794    0.5030    4.1490 C.3       1 <0>         0.1012
     22 C22         8.3797    4.8486   -5.6198 C.3       1 <0>         0.1554
     23 C23         9.1441    6.0926   -6.0861 C.3       1 <0>        -0.0356
     24 C24         6.0158    5.3379    2.0114 C.3       1 <0>        -0.0795
     25 C25         6.7209    6.4716    2.7653 C.3       1 <0>        -0.1203
     26 C26         6.9719    4.2276    1.5544 C.3       1 <0>        -0.0920
     27 C27         5.7742    7.5909    3.1979 C.3       1 <0>         0.1502
     28 C28         6.2906    3.1130    0.7514 C.3       1 <0>         0.0224
     29 N1          6.7058    4.1331   -3.9791 N.am      1 <0>        -0.3553
     30 N2          6.4777    3.0462   -4.8435 N.3       1 <0>        -0.4320
     31 N3          9.3531    3.7833   -5.3380 N.3       1 <0>        -0.9031
     32 N4          4.7531    7.0666    4.0988 N.3       1 <0>        -0.9068
     33 N5          6.6784    1.4957    3.2556 N.am      1 <0>        -0.5526
     34 N6          5.7762    3.5917   -0.5046 N.am      1 <0>        -0.5576
     35 O1          7.8821    6.0807   -3.5877 O.2       1 <0>        -0.6710
     36 O2          4.0675    2.7325    1.6631 O.2       1 <0>        -0.4901
     37 O3          5.0785    0.1378    2.2009 O.2       1 <0>        -0.5902
     38 O4          7.6924    3.2783   -1.7917 O.2       1 <0>        -0.5833
     39 H1         11.7147    5.1800  -10.7084 H         1 <0>         0.1320
     40 H2         12.8515    4.7366   -8.5485 H         1 <0>         0.1324
     41 H3          9.3897    6.0452  -10.7320 H         1 <0>         0.1328
     42 H4         11.6716    5.1554   -6.4159 H         1 <0>         0.1324
     43 H5          8.2009    6.4675   -8.6050 H         1 <0>         0.1434
     44 H6          8.6419    1.2382    7.1717 H         1 <0>         0.0405
     45 H7          8.3135    2.9662    7.0790 H         1 <0>         0.0421
     46 H8          8.6421    2.9682    4.6527 H         1 <0>         0.0362
     47 H9         10.0379    2.2218    5.4226 H         1 <0>         0.0439
     48 H10         6.2267    1.5983    7.2920 H         1 <0>         0.0350
     49 H11         6.2452    2.5755    5.8281 H         1 <0>         0.0428
     50 H12         9.2774    0.9428    3.4210 H         1 <0>         0.0663
     51 H13         9.2336   -0.0211    4.8951 H         1 <0>         0.0466
     52 H14         6.8632   -0.4096    6.0583 H         1 <0>         0.0493
     53 H15         5.4478    0.3156    5.3000 H         1 <0>         0.0520
     54 H16         3.9023    3.8458   -3.8340 H         1 <0>         0.0915
     55 H17         4.1709    2.7289   -2.4768 H         1 <0>         0.0601
     56 H18         7.9078    3.8408   -7.4902 H         1 <0>         0.0688
     57 H19         6.9559    5.2827   -7.2061 H         1 <0>         0.0630
     58 H20         5.7303    1.4383   -3.7336 H         1 <0>         0.0807
     59 H21         4.6390    1.9190   -5.0344 H         1 <0>         0.0380
     60 H22         5.2889    4.1652   -6.1941 H         1 <0>         0.0484
     61 H23         6.0298    2.7205   -6.8794 H         1 <0>         0.0697
     62 H24         5.4651    5.1881   -2.6391 H         1 <0>         0.0843
     63 H25         7.1851   -0.4595    3.6354 H         1 <0>         0.0831
     64 H26         9.8520    6.3858   -5.3087 H         1 <0>         0.0704
     65 H27         8.4405    6.9195   -6.1990 H         1 <0>         0.0718
     66 H28         5.2579    4.9142    2.6804 H         1 <0>         0.0606
     67 H29         5.4809    5.7546    1.1500 H         1 <0>         0.0458
     68 H30         7.2000    6.0392    3.6534 H         1 <0>         0.0375
     69 H31         7.5258    6.8807    2.1417 H         1 <0>         0.0392
     70 H32         7.4599    3.7926    2.4354 H         1 <0>         0.0606
     71 H33         7.7645    4.6634    0.9347 H         1 <0>         0.0579
     72 H34         5.2908    8.0386    2.3228 H         1 <0>         0.0571
     73 H35         6.3225    8.3806    3.7198 H         1 <0>         0.0503
     74 H36         7.0421    2.3587    0.4881 H         1 <0>         0.0993
     75 H37         9.0331    2.8434   -5.3754 H         1 <0>         0.3700
     76 H38        10.2196    4.0460   -4.9287 H         1 <0>         0.3660
     77 H39         4.0028    7.6695    4.3608 H         1 <0>         0.3465
     78 H40         4.9421    6.2118    4.5770 H         1 <0>         0.3446
     79 H41         7.0352    2.4464    3.2766 H         1 <0>         0.3148
     80 H42         4.8120    3.9176   -0.5391 H         1 <0>         0.3220
@<TRIPOS>BOND
     1    1    2 ar
     2    1    3 ar
     3    2    4 ar
     4    3    5 ar
     5    4    6 ar
     6    5    6 ar
     7    6   23 1
     8    7   22 1
     9    7   29 am
    10    7   35 2
    11    8    9 1
    12    8   28 1
    13    8   36 2
    14    9   33 am
    15    9   37 2
    16   10   20 1
    17   10   34 am
    18   10   38 2
    19   11   12 1
    20   11   13 1
    21   12   14 1
    22   13   15 1
    23   14   21 1
    24   15   21 1
    25   16   18 1
    26   16   20 1
    27   17   19 1
    28   17   22 1
    29   18   30 1
    30   19   30 1
    31   20   29 1
    32   21   33 1
    33   22   23 1
    34   22   31 1
    35   24   25 1
    36   24   26 1
    37   25   27 1
    38   26   28 1
    39   27   32 1
    40   28   34 1
    41   29   30 1
    42    1   39 1
    43    2   40 1
    44    3   41 1
    45    4   42 1
    46    5   43 1
    47   11   44 1
    48   11   45 1
    49   12   46 1
    50   12   47 1
    51   13   48 1
    52   13   49 1
    53   14   50 1
    54   14   51 1
    55   15   52 1
    56   15   53 1
    57   16   54 1
    58   16   55 1
    59   17   56 1
    60   17   57 1
    61   18   58 1
    62   18   59 1
    63   19   60 1
    64   19   61 1
    65   20   62 1
    66   21   63 1
    67   23   64 1
    68   23   65 1
    69   24   66 1
    70   24   67 1
    71   25   68 1
    72   25   69 1
    73   26   70 1
    74   26   71 1
    75   27   72 1
    76   27   73 1
    77   28   74 1
    78   31   75 1
    79   31   76 1
    80   32   77 1
    81   32   78 1
    82   33   79 1
    83   34   80 1
@<TRIPOS>MOLECULE
1a46_ligand_279
   80    83     0     0     0
SMALL
USER_CHARGES

mmff94s_NoEstat = 87.13
@<TRIPOS>ATOM
      1 C1          9.0003   12.0144   -5.4225 C.ar      1 <0>        -0.1300
      2 C2          9.4537   11.5665   -4.1818 C.ar      1 <0>        -0.1323
      3 C3          7.8120   11.5127   -5.9535 C.ar      1 <0>        -0.1309
      4 C4          8.7189   10.6167   -3.4722 C.ar      1 <0>        -0.1275
      5 C5          7.0772   10.5629   -5.2439 C.ar      1 <0>        -0.1272
      6 C6          7.5355   10.1211   -4.0078 C.ar      1 <0>        -0.0843
      7 C7          6.3757    6.6257   -2.8269 C.2       1 <0>         0.6709
      8 C8          5.2358    2.3798    1.5634 C.2       1 <0>         0.4867
      9 C9          4.0737    1.7586    0.8450 C.2       1 <0>         0.5883
     10 C10         6.5256    3.6321   -1.6689 C.2       1 <0>         0.6572
     11 C11         1.7926   -2.0333    3.0392 C.3       1 <0>        -0.0802
     12 C12         2.8691   -2.0092    1.9574 C.3       1 <0>        -0.0765
     13 C13         1.4148   -0.6275    3.4983 C.3       1 <0>        -0.0774
     14 C14         2.4660   -1.1175    0.7822 C.3       1 <0>        -0.0953
     15 C15         1.0147    0.2608    2.3194 C.3       1 <0>        -0.0906
     16 C16         5.8400    3.2307   -4.0468 C.3       1 <0>        -0.0871
     17 C17         7.0291    7.4385   -5.1265 C.3       1 <0>        -0.0716
     18 C18         7.1120    3.6562   -4.7776 C.3       1 <0>         0.1333
     19 C19         6.8955    5.9616   -5.5361 C.3       1 <0>         0.1246
     20 C20         5.7868    4.1659   -2.8575 C.3       1 <0>         0.0606
     21 C21         2.0813    0.3030    1.2170 C.3       1 <0>         0.1012
     22 C22         7.1815    7.6752   -3.6055 C.3       1 <0>         0.1554
     23 C23         6.7451    9.0995   -3.2444 C.3       1 <0>        -0.0356
     24 C24         6.0158    5.3379    2.0114 C.3       1 <0>        -0.0795
     25 C25         6.7209    6.4716    2.7653 C.3       1 <0>        -0.1203
     26 C26         6.9719    4.2276    1.5544 C.3       1 <0>        -0.0920
     27 C27         5.7742    7.5909    3.1979 C.3       1 <0>         0.1502
     28 C28         6.2906    3.1130    0.7514 C.3       1 <0>         0.0224
     29 N1          6.5101    5.3360   -3.3173 N.am      1 <0>        -0.3553
     30 N2          7.3084    5.0783   -4.4472 N.3       1 <0>        -0.4320
     31 N3          8.5804    7.4980   -3.1893 N.3       1 <0>        -0.9031
     32 N4          4.7531    7.0666    4.0988 N.3       1 <0>        -0.9068
     33 N5          3.2649    1.0281    1.6841 N.am      1 <0>        -0.5526
     34 N6          5.7762    3.5917   -0.5046 N.am      1 <0>        -0.5576
     35 O1          5.6876    6.9159   -1.8485 O.2       1 <0>        -0.6710
     36 O2          5.3022    2.1819    2.7699 O.2       1 <0>        -0.4901
     37 O3          3.9822    1.9394   -0.3582 O.2       1 <0>        -0.5902
     38 O4          7.6924    3.2783   -1.7917 O.2       1 <0>        -0.5833
     39 H1          9.5724   12.7539   -5.9752 H         1 <0>         0.1320
     40 H2         10.3789   11.9573   -3.7685 H         1 <0>         0.1324
     41 H3          7.4591   11.8615   -6.9197 H         1 <0>         0.1328
     42 H4          9.0800   10.2736   -2.5062 H         1 <0>         0.1324
     43 H5          6.1526   10.1776   -5.6655 H         1 <0>         0.1434
     44 H6          0.9001   -2.5398    2.6511 H         1 <0>         0.0405
     45 H7          2.1436   -2.6194    3.8961 H         1 <0>         0.0421
     46 H8          3.8122   -1.6516    2.3880 H         1 <0>         0.0362
     47 H9          3.0515   -3.0286    1.5983 H         1 <0>         0.0439
     48 H10         0.5852   -0.6849    4.2123 H         1 <0>         0.0350
     49 H11         2.2609   -0.1774    4.0315 H         1 <0>         0.0428
     50 H12         3.2898   -1.0805    0.0591 H         1 <0>         0.0663
     51 H13         1.6118   -1.5754    0.2674 H         1 <0>         0.0466
     52 H14         0.0770   -0.1178    1.8931 H         1 <0>         0.0493
     53 H15         0.8108    1.2743    2.6856 H         1 <0>         0.0520
     54 H16         4.9736    3.4114   -4.6951 H         1 <0>         0.0915
     55 H17         5.8531    2.1713   -3.7729 H         1 <0>         0.0601
     56 H18         7.8805    7.8879   -5.6555 H         1 <0>         0.0688
     57 H19         6.1391    7.9685   -5.4921 H         1 <0>         0.0630
     58 H20         7.9647    3.0932   -4.3794 H         1 <0>         0.0807
     59 H21         7.0607    3.4497   -5.8523 H         1 <0>         0.0380
     60 H22         5.8545    5.7643   -5.8276 H         1 <0>         0.0484
     61 H23         7.5124    5.7838   -6.4252 H         1 <0>         0.0697
     62 H24         4.7698    4.4250   -2.5496 H         1 <0>         0.0843
     63 H25         1.7044    0.8657    0.3566 H         1 <0>         0.0831
     64 H26         6.8700    9.2469   -2.1701 H         1 <0>         0.0704
     65 H27         5.6795    9.2080   -3.4549 H         1 <0>         0.0718
     66 H28         5.2579    4.9142    2.6804 H         1 <0>         0.0606
     67 H29         5.4809    5.7546    1.1500 H         1 <0>         0.0458
     68 H30         7.2000    6.0392    3.6534 H         1 <0>         0.0375
     69 H31         7.5258    6.8807    2.1417 H         1 <0>         0.0392
     70 H32         7.4599    3.7926    2.4354 H         1 <0>         0.0606
     71 H33         7.7645    4.6634    0.9347 H         1 <0>         0.0579
     72 H34         5.2908    8.0386    2.3228 H         1 <0>         0.0571
     73 H35         6.3225    8.3806    3.7198 H         1 <0>         0.0503
     74 H36         7.0421    2.3587    0.4881 H         1 <0>         0.0993
     75 H37         9.1142    6.7979   -3.6499 H         1 <0>         0.3700
     76 H38         8.8693    7.9327   -2.3437 H         1 <0>         0.3660
     77 H39         4.0028    7.6695    4.3608 H         1 <0>         0.3465
     78 H40         4.9421    6.2118    4.5770 H         1 <0>         0.3446
     79 H41         3.4989    0.9899    2.6717 H         1 <0>         0.3148
     80 H42         4.8120    3.9176   -0.5391 H         1 <0>         0.3220
@<TRIPOS>BOND
     1    1    2 ar
     2    1    3 ar
     3    2    4 ar
     4    3    5 ar
     5    4    6 ar
     6    5    6 ar
     7    6   23 1
     8    7   22 1
     9    7   29 am
    10    7   35 2
    11    8    9 1
    12    8   28 1
    13    8   36 2
    14    9   33 am
    15    9   37 2
    16   10   20 1
    17   10   34 am
    18   10   38 2
    19   11   12 1
    20   11   13 1
    21   12   14 1
    22   13   15 1
    23   14   21 1
    24   15   21 1
    25   16   18 1
    26   16   20 1
    27   17   19 1
    28   17   22 1
    29   18   30 1
    30   19   30 1
    31   20   29 1
    32   21   33 1
    33   22   23 1
    34   22   31 1
    35   24   25 1
    36   24   26 1
    37   25   27 1
    38   26   28 1
    39   27   32 1
    40   28   34 1
    41   29   30 1
    42    1   39 1
    43    2   40 1
    44    3   41 1
    45    4   42 1
    46    5   43 1
    47   11   44 1
    48   11   45 1
    49   12   46 1
    50   12   47 1
    51   13   48 1
    52   13   49 1
    53   14   50 1
    54   14   51 1
    55   15   52 1
    56   15   53 1
    57   16   54 1
    58   16   55 1
    59   17   56 1
    60   17   57 1
    61   18   58 1
    62   18   59 1
    63   19   60 1
    64   19   61 1
    65   20   62 1
    66   21   63 1
    67   23   64 1
    68   23   65 1
    69   24   66 1
    70   24   67 1
    71   25   68 1
    72   25   69 1
    73   26   70 1
    74   26   71 1
    75   27   72 1
    76   27   73 1
    77   28   74 1
    78   31   75 1
    79   31   76 1
    80   32   77 1
    81   32   78 1
    82   33   79 1
    83   34   80 1
@<TRIPOS>MOLECULE
1a46_ligand_280
   80    83     0     0     0
SMALL
USER_CHARGES

mmff94s_NoEstat = 87.19
@<TRIPOS>ATOM
      1 C1         -6.8775    5.0901  -14.7309 C.ar      1 <0>        -0.1300
      2 C2         -5.5917    5.6294  -14.7709 C.ar      1 <0>        -0.1323
      3 C3         -7.3842    4.5832  -13.5342 C.ar      1 <0>        -0.1309
      4 C4         -4.8126    5.6616  -13.6144 C.ar      1 <0>        -0.1275
      5 C5         -6.6051    4.6154  -12.3777 C.ar      1 <0>        -0.1272
      6 C6         -5.3244    5.1544  -12.4253 C.ar      1 <0>        -0.0843
      7 C7         -2.7863    3.9453   -9.7694 C.2       1 <0>         0.6709
      8 C8          2.7796    3.2097   -6.1637 C.2       1 <0>         0.4867
      9 C9          2.2829    2.0299   -5.3801 C.2       1 <0>         0.5883
     10 C10        -0.0591    2.8141   -8.5012 C.2       1 <0>         0.6572
     11 C11         3.1352   -0.7430   -0.8195 C.3       1 <0>        -0.0802
     12 C12         3.9901   -1.1863   -2.0034 C.3       1 <0>        -0.0765
     13 C13         1.8125   -0.1343   -1.2766 C.3       1 <0>        -0.0774
     14 C14         4.2106   -0.0471   -2.9972 C.3       1 <0>        -0.0953
     15 C15         2.0307    1.0065   -2.2690 C.3       1 <0>        -0.0906
     16 C16        -1.6498    0.9246   -8.0710 C.3       1 <0>        -0.0871
     17 C17        -4.5618    2.6685  -11.0314 C.3       1 <0>        -0.0716
     18 C18        -1.8952    0.4385   -9.4981 C.3       1 <0>         0.1333
     19 C19        -3.9477    1.4257  -10.3641 C.3       1 <0>         0.1246
     20 C20        -1.4789    2.4202   -8.2321 C.3       1 <0>         0.0606
     21 C21         2.8795    0.5537   -3.4621 C.3       1 <0>         0.1012
     22 C22        -3.6459    3.9150  -11.0410 C.3       1 <0>         0.1554
     23 C23        -4.4863    5.1891  -11.1812 C.3       1 <0>        -0.0356
     24 C24         1.5857    6.0302   -6.5865 C.3       1 <0>        -0.0795
     25 C25         1.6811    7.5259   -6.9095 C.3       1 <0>        -0.1203
     26 C26         2.1570    5.1335   -7.6933 C.3       1 <0>        -0.0920
     27 C27         1.0885    8.4192   -5.8200 C.3       1 <0>         0.1502
     28 C28         2.0196    3.6328   -7.4097 C.3       1 <0>         0.0224
     29 N1         -2.2374    2.7178   -9.4321 N.am      1 <0>        -0.3553
     30 N2         -2.5018    1.5760  -10.2111 N.3       1 <0>        -0.4320
     31 N3         -2.6997    3.8562  -12.1647 N.3       1 <0>        -0.9031
     32 N4          1.8018    8.2205   -4.5627 N.3       1 <0>        -0.9068
     33 N5          3.1295    1.6859   -4.3521 N.am      1 <0>        -0.5526
     34 N6          0.6426    3.2153   -7.3763 N.am      1 <0>        -0.5576
     35 O1         -2.5986    4.9773   -9.1254 O.2       1 <0>        -0.6710
     36 O2          3.8302    3.7133   -5.7870 O.2       1 <0>        -0.4901
     37 O3          1.2381    1.5078   -5.7331 O.2       1 <0>        -0.5902
     38 O4          0.3766    2.7593   -9.6452 O.2       1 <0>        -0.5833
     39 H1         -7.4841    5.0650  -15.6314 H         1 <0>         0.1320
     40 H2         -5.1973    6.0241  -15.7027 H         1 <0>         0.1324
     41 H3         -8.3853    4.1632  -13.5032 H         1 <0>         0.1328
     42 H4         -3.8120    6.0837  -13.6551 H         1 <0>         0.1324
     43 H5         -7.0082    4.2181  -11.4499 H         1 <0>         0.1434
     44 H6          2.9400   -1.5995   -0.1644 H         1 <0>         0.0405
     45 H7          3.6896   -0.0057   -0.2260 H         1 <0>         0.0421
     46 H8          4.9578   -1.5528   -1.6424 H         1 <0>         0.0362
     47 H9          3.5008   -2.0249   -2.5138 H         1 <0>         0.0439
     48 H10         1.1947   -0.9108   -1.7442 H         1 <0>         0.0350
     49 H11         1.2571    0.2351   -0.4071 H         1 <0>         0.0428
     50 H12         4.8299    0.7297   -2.5295 H         1 <0>         0.0663
     51 H13         4.7767   -0.4166   -3.8608 H         1 <0>         0.0466
     52 H14         1.0607    1.3794   -2.6197 H         1 <0>         0.0493
     53 H15         2.5198    1.8461   -1.7576 H         1 <0>         0.0520
     54 H16        -2.5391    0.7200   -7.4620 H         1 <0>         0.0915
     55 H17        -0.7905    0.4314   -7.6064 H         1 <0>         0.0601
     56 H18        -4.8571    2.4214  -12.0603 H         1 <0>         0.0688
     57 H19        -5.4956    2.9043  -10.5031 H         1 <0>         0.0630
     58 H20        -0.9338    0.2117   -9.9745 H         1 <0>         0.0807
     59 H21        -2.4949   -0.4779   -9.5259 H         1 <0>         0.0380
     60 H22        -4.4307    1.2677   -9.3899 H         1 <0>         0.0484
     61 H23        -4.1761    0.5456  -10.9773 H         1 <0>         0.0697
     62 H24        -1.8462    2.9971   -7.3786 H         1 <0>         0.0843
     63 H25         2.3252   -0.1849   -4.0527 H         1 <0>         0.0831
     64 H26        -3.8200    6.0535  -11.1955 H         1 <0>         0.0704
     65 H27        -5.1199    5.2949  -10.2986 H         1 <0>         0.0718
     66 H28         2.1358    5.8550   -5.6547 H         1 <0>         0.0606
     67 H29         0.5392    5.7688   -6.3906 H         1 <0>         0.0458
     68 H30         2.7419    7.7748   -7.0444 H         1 <0>         0.0375
     69 H31         1.1870    7.7255   -7.8687 H         1 <0>         0.0392
     70 H32         3.2164    5.3787   -7.8393 H         1 <0>         0.0606
     71 H33         1.6466    5.3535   -8.6384 H         1 <0>         0.0579
     72 H34         0.0275    8.1885   -5.6755 H         1 <0>         0.0571
     73 H35         1.1682    9.4739   -6.0992 H         1 <0>         0.0503
     74 H36         2.4714    3.0747   -8.2388 H         1 <0>         0.0993
     75 H37        -2.3461    2.9648  -12.4248 H         1 <0>         0.3700
     76 H38        -2.3015    4.7109  -12.4784 H         1 <0>         0.3660
     77 H39         1.4387    8.6562   -3.7421 H         1 <0>         0.3465
     78 H40         2.7216    7.8360   -4.5996 H         1 <0>         0.3446
     79 H41         3.9656    2.2434   -4.2049 H         1 <0>         0.3148
     80 H42         0.1596    3.2148   -6.4798 H         1 <0>         0.3220
@<TRIPOS>BOND
     1    1    2 ar
     2    1    3 ar
     3    2    4 ar
     4    3    5 ar
     5    4    6 ar
     6    5    6 ar
     7    6   23 1
     8    7   22 1
     9    7   29 am
    10    7   35 2
    11    8    9 1
    12    8   28 1
    13    8   36 2
    14    9   33 am
    15    9   37 2
    16   10   20 1
    17   10   34 am
    18   10   38 2
    19   11   12 1
    20   11   13 1
    21   12   14 1
    22   13   15 1
    23   14   21 1
    24   15   21 1
    25   16   18 1
    26   16   20 1
    27   17   19 1
    28   17   22 1
    29   18   30 1
    30   19   30 1
    31   20   29 1
    32   21   33 1
    33   22   23 1
    34   22   31 1
    35   24   25 1
    36   24   26 1
    37   25   27 1
    38   26   28 1
    39   27   32 1
    40   28   34 1
    41   29   30 1
    42    1   39 1
    43    2   40 1
    44    3   41 1
    45    4   42 1
    46    5   43 1
    47   11   44 1
    48   11   45 1
    49   12   46 1
    50   12   47 1
    51   13   48 1
    52   13   49 1
    53   14   50 1
    54   14   51 1
    55   15   52 1
    56   15   53 1
    57   16   54 1
    58   16   55 1
    59   17   56 1
    60   17   57 1
    61   18   58 1
    62   18   59 1
    63   19   60 1
    64   19   61 1
    65   20   62 1
    66   21   63 1
    67   23   64 1
    68   23   65 1
    69   24   66 1
    70   24   67 1
    71   25   68 1
    72   25   69 1
    73   26   70 1
    74   26   71 1
    75   27   72 1
    76   27   73 1
    77   28   74 1
    78   31   75 1
    79   31   76 1
    80   32   77 1
    81   32   78 1
    82   33   79 1
    83   34   80 1
@<TRIPOS>MOLECULE
1a46_ligand_281
   80    83     0     0     0
SMALL
USER_CHARGES

mmff94s_NoEstat = 87.25
@<TRIPOS>ATOM
      1 C1         -7.1732    5.1663  -14.6915 C.ar      1 <0>        -0.1300
      2 C2         -5.9354    5.8086  -14.7170 C.ar      1 <0>        -0.1323
      3 C3         -7.6444    4.6069  -13.5037 C.ar      1 <0>        -0.1309
      4 C4         -5.1685    5.8915  -13.5548 C.ar      1 <0>        -0.1275
      5 C5         -6.8775    4.6898  -12.3415 C.ar      1 <0>        -0.1272
      6 C6         -5.6446    5.3316  -12.3746 C.ar      1 <0>        -0.0843
      7 C7         -3.0329    4.3040   -9.7137 C.2       1 <0>         0.6709
      8 C8          2.7796    3.2097   -6.1637 C.2       1 <0>         0.4867
      9 C9          2.2829    2.0299   -5.3801 C.2       1 <0>         0.5883
     10 C10        -0.2306    3.3845   -8.4382 C.2       1 <0>         0.6572
     11 C11         1.5839   -3.3211   -5.6849 C.3       1 <0>        -0.0802
     12 C12         2.3480   -2.5670   -4.6002 C.3       1 <0>        -0.0765
     13 C13         0.4244   -2.4952   -6.2347 C.3       1 <0>        -0.0774
     14 C14         2.8173   -1.1982   -5.0901 C.3       1 <0>        -0.0953
     15 C15         0.8909   -1.1259   -6.7260 C.3       1 <0>        -0.0906
     16 C16        -1.6648    1.3674   -8.0386 C.3       1 <0>        -0.0871
     17 C17        -4.6909    2.9009  -11.0011 C.3       1 <0>        -0.0716
     18 C18        -1.8612    0.8785   -9.4723 C.3       1 <0>         0.1333
     19 C19        -3.9819    1.7050  -10.3424 C.3       1 <0>         0.1246
     20 C20        -1.6152    2.8736   -8.1831 C.3       1 <0>         0.0606
     21 C21         1.6479   -0.3676   -5.6301 C.3       1 <0>         0.1012
     22 C22        -3.8794    4.2177  -10.9915 C.3       1 <0>         0.1554
     23 C23        -4.8198    5.4208  -11.1245 C.3       1 <0>        -0.0356
     24 C24         1.5857    6.0302   -6.5865 C.3       1 <0>        -0.0795
     25 C25         1.6811    7.5259   -6.9095 C.3       1 <0>        -0.1203
     26 C26         2.1570    5.1335   -7.6933 C.3       1 <0>        -0.0920
     27 C27         1.0885    8.4192   -5.8200 C.3       1 <0>         0.1502
     28 C28         2.0196    3.6328   -7.4097 C.3       1 <0>         0.0224
     29 N1         -2.3880    3.1216   -9.3852 N.am      1 <0>        -0.3553
     30 N2         -2.5540    1.9705  -10.1777 N.3       1 <0>        -0.4320
     31 N3         -2.9247    4.2482  -12.1092 N.3       1 <0>        -0.9031
     32 N4          1.8018    8.2205   -4.5627 N.3       1 <0>        -0.9068
     33 N5          2.1424    0.9032   -6.1564 N.am      1 <0>        -0.5526
     34 N6          0.6426    3.2153   -7.3763 N.am      1 <0>        -0.5576
     35 O1         -2.9337    5.3408   -9.0578 O.2       1 <0>        -0.6710
     36 O2          3.8302    3.7133   -5.7870 O.2       1 <0>        -0.4901
     37 O3          2.0451    2.1901   -4.1942 O.2       1 <0>        -0.5902
     38 O4          0.0350    3.8958   -9.5198 O.2       1 <0>        -0.5833
     39 H1         -7.7703    5.1016  -15.5965 H         1 <0>         0.1320
     40 H2         -5.5686    6.2441  -15.6419 H         1 <0>         0.1324
     41 H3         -8.6082    4.1066  -13.4840 H         1 <0>         0.1328
     42 H4         -4.2053    6.3939  -13.5842 H         1 <0>         0.1324
     43 H5         -7.2527    4.2510  -11.4207 H         1 <0>         0.1434
     44 H6          2.2693   -3.5764   -6.5027 H         1 <0>         0.0405
     45 H7          1.2041   -4.2657   -5.2793 H         1 <0>         0.0421
     46 H8          1.7035   -2.4385   -3.7218 H         1 <0>         0.0362
     47 H9          3.2121   -3.1592   -4.2788 H         1 <0>         0.0439
     48 H10        -0.0574   -3.0370   -7.0564 H         1 <0>         0.0350
     49 H11        -0.3326   -2.3626   -5.4518 H         1 <0>         0.0428
     50 H12         3.3102   -0.6631   -4.2694 H         1 <0>         0.0663
     51 H13         3.5756   -1.3313   -5.8729 H         1 <0>         0.0466
     52 H14         1.5347   -1.2544   -7.6060 H         1 <0>         0.0493
     53 H15         0.0251   -0.5402   -7.0577 H         1 <0>         0.0520
     54 H16        -2.5383    1.0847   -7.4380 H         1 <0>         0.0915
     55 H17        -0.7712    0.9407   -7.5731 H         1 <0>         0.0601
     56 H18        -4.9589    2.6417  -12.0345 H         1 <0>         0.0688
     57 H19        -5.6440    3.0543  -10.4769 H         1 <0>         0.0630
     58 H20        -0.8817    0.7357   -9.9443 H         1 <0>         0.0807
     59 H21        -2.3843   -0.0833   -9.5137 H         1 <0>         0.0380
     60 H22        -4.4563    1.4977   -9.3732 H         1 <0>         0.0484
     61 H23        -4.1342    0.8159  -10.9661 H         1 <0>         0.0697
     62 H24        -2.0334    3.4095   -7.3263 H         1 <0>         0.0843
     63 H25         0.9629   -0.1158   -4.8124 H         1 <0>         0.0831
     64 H26        -4.2259    6.3366  -11.1252 H         1 <0>         0.0704
     65 H27        -5.4653    5.4651  -10.2453 H         1 <0>         0.0718
     66 H28         2.1358    5.8550   -5.6547 H         1 <0>         0.0606
     67 H29         0.5392    5.7688   -6.3906 H         1 <0>         0.0458
     68 H30         2.7419    7.7748   -7.0444 H         1 <0>         0.0375
     69 H31         1.1870    7.7255   -7.8687 H         1 <0>         0.0392
     70 H32         3.2164    5.3787   -7.8393 H         1 <0>         0.0606
     71 H33         1.6466    5.3535   -8.6384 H         1 <0>         0.0579
     72 H34         0.0275    8.1885   -5.6755 H         1 <0>         0.0571
     73 H35         1.1682    9.4739   -6.0992 H         1 <0>         0.0503
     74 H36         2.4714    3.0747   -8.2388 H         1 <0>         0.0993
     75 H37        -2.4982    3.3913  -12.3759 H         1 <0>         0.3700
     76 H38        -2.5954    5.1358  -12.4112 H         1 <0>         0.3660
     77 H39         1.4387    8.6562   -3.7421 H         1 <0>         0.3465
     78 H40         2.7216    7.8360   -4.5996 H         1 <0>         0.3446
     79 H41         2.3934    0.9566   -7.1391 H         1 <0>         0.3148
     80 H42         0.2924    2.7728   -6.5286 H         1 <0>         0.3220
@<TRIPOS>BOND
     1    1    2 ar
     2    1    3 ar
     3    2    4 ar
     4    3    5 ar
     5    4    6 ar
     6    5    6 ar
     7    6   23 1
     8    7   22 1
     9    7   29 am
    10    7   35 2
    11    8    9 1
    12    8   28 1
    13    8   36 2
    14    9   33 am
    15    9   37 2
    16   10   20 1
    17   10   34 am
    18   10   38 2
    19   11   12 1
    20   11   13 1
    21   12   14 1
    22   13   15 1
    23   14   21 1
    24   15   21 1
    25   16   18 1
    26   16   20 1
    27   17   19 1
    28   17   22 1
    29   18   30 1
    30   19   30 1
    31   20   29 1
    32   21   33 1
    33   22   23 1
    34   22   31 1
    35   24   25 1
    36   24   26 1
    37   25   27 1
    38   26   28 1
    39   27   32 1
    40   28   34 1
    41   29   30 1
    42    1   39 1
    43    2   40 1
    44    3   41 1
    45    4   42 1
    46    5   43 1
    47   11   44 1
    48   11   45 1
    49   12   46 1
    50   12   47 1
    51   13   48 1
    52   13   49 1
    53   14   50 1
    54   14   51 1
    55   15   52 1
    56   15   53 1
    57   16   54 1
    58   16   55 1
    59   17   56 1
    60   17   57 1
    61   18   58 1
    62   18   59 1
    63   19   60 1
    64   19   61 1
    65   20   62 1
    66   21   63 1
    67   23   64 1
    68   23   65 1
    69   24   66 1
    70   24   67 1
    71   25   68 1
    72   25   69 1
    73   26   70 1
    74   26   71 1
    75   27   72 1
    76   27   73 1
    77   28   74 1
    78   31   75 1
    79   31   76 1
    80   32   77 1
    81   32   78 1
    82   33   79 1
    83   34   80 1
@<TRIPOS>MOLECULE
1a46_ligand_282
   80    83     0     0     0
SMALL
USER_CHARGES

mmff94s_NoEstat = 87.30
@<TRIPOS>ATOM
      1 C1         -4.2961    6.3604   -2.7495 C.ar      1 <0>        -0.1300
      2 C2         -3.8917    5.7888   -1.5431 C.ar      1 <0>        -0.1323
      3 C3         -3.4839    6.2539   -3.8786 C.ar      1 <0>        -0.1309
      4 C4         -2.6752    5.1109   -1.4657 C.ar      1 <0>        -0.1275
      5 C5         -2.2674    5.5759   -3.8012 C.ar      1 <0>        -0.1272
      6 C6         -1.8709    5.0088   -2.5952 C.ar      1 <0>        -0.0843
      7 C7          1.9202    4.4855   -2.0375 C.2       1 <0>         0.6709
      8 C8          5.2358    2.3798    1.5634 C.2       1 <0>         0.4867
      9 C9          4.9672    2.8271    2.9706 C.2       1 <0>         0.5883
     10 C10         4.7954    4.5647   -0.6048 C.2       1 <0>         0.6572
     11 C11         3.8398   -0.6458    6.2969 C.3       1 <0>        -0.0802
     12 C12         2.9425    0.2829    5.4830 C.3       1 <0>        -0.0765
     13 C13         5.3167   -0.4410    5.9708 C.3       1 <0>        -0.0774
     14 C14         3.3601    1.7460    5.6368 C.3       1 <0>        -0.0953
     15 C15         5.7288    1.0239    6.1238 C.3       1 <0>        -0.0906
     16 C16         5.1345    6.1376   -2.5274 C.3       1 <0>        -0.0871
     17 C17         0.6797    6.3873   -3.1418 C.3       1 <0>        -0.0716
     18 C18         4.2227    7.2889   -2.1078 C.3       1 <0>         0.1333
     19 C19         2.0578    7.0682   -3.2043 C.3       1 <0>         0.1246
     20 C20         4.4137    4.9104   -2.0113 C.3       1 <0>         0.0606
     21 C21         4.8421    1.9794    5.3142 C.3       1 <0>         0.1012
     22 C22         0.5786    5.2268   -2.1241 C.3       1 <0>         0.1554
     23 C23        -0.5623    4.2796   -2.5120 C.3       1 <0>        -0.0356
     24 C24         8.0800    4.9598    0.7851 C.3       1 <0>        -0.0795
     25 C25         8.7880    6.0338    1.6192 C.3       1 <0>        -0.1203
     26 C26         6.9719    4.2276    1.5544 C.3       1 <0>        -0.0920
     27 C27         9.9095    6.7454    0.8629 C.3       1 <0>         0.1502
     28 C28         6.2906    3.1130    0.7514 C.3       1 <0>         0.0224
     29 N1          3.0235    5.3233   -1.9852 N.am      1 <0>        -0.3553
     30 N2          2.8653    6.7208   -2.0365 N.3       1 <0>        -0.4320
     31 N3          0.3159    5.7420   -0.7724 N.3       1 <0>        -0.9031
     32 N4         10.5470    7.7366    1.7233 N.3       1 <0>        -0.9068
     33 N5          5.0827    1.8021    3.8805 N.am      1 <0>        -0.5526
     34 N6          5.7762    3.5917   -0.5046 N.am      1 <0>        -0.5576
     35 O1          1.9934    3.2573   -2.0040 O.2       1 <0>        -0.6710
     36 O2          4.5176    1.4899    1.1258 O.2       1 <0>        -0.4901
     37 O3          4.6665    3.9957    3.1517 O.2       1 <0>        -0.5902
     38 O4          4.2448    5.1367    0.3286 O.2       1 <0>        -0.5833
     39 H1         -5.2433    6.8883   -2.8098 H         1 <0>         0.1320
     40 H2         -4.5242    5.8718   -0.6641 H         1 <0>         0.1324
     41 H3         -3.7988    6.6991   -4.8178 H         1 <0>         0.1328
     42 H4         -2.3683    4.6687   -0.5215 H         1 <0>         0.1324
     43 H5         -1.6411    5.4981   -4.6860 H         1 <0>         0.1434
     44 H6          3.6760   -0.4626    7.3661 H         1 <0>         0.0405
     45 H7          3.5610   -1.6884    6.1065 H         1 <0>         0.0421
     46 H8          2.9819   -0.0049    4.4255 H         1 <0>         0.0362
     47 H9          1.9018    0.1629    5.8051 H         1 <0>         0.0439
     48 H10         5.9288   -1.0650    6.6319 H         1 <0>         0.0350
     49 H11         5.5146   -0.7767    4.9457 H         1 <0>         0.0428
     50 H12         2.7306    2.3699    4.9908 H         1 <0>         0.0663
     51 H13         3.1670    2.0622    6.6698 H         1 <0>         0.0466
     52 H14         5.6719    1.2986    7.1848 H         1 <0>         0.0493
     53 H15         6.7773    1.1361    5.8224 H         1 <0>         0.0520
     54 H16         5.1868    6.0993   -3.6226 H         1 <0>         0.0915
     55 H17         6.1502    6.2483   -2.1355 H         1 <0>         0.0601
     56 H18        -0.0889    7.1398   -2.9187 H         1 <0>         0.0688
     57 H19         0.4458    6.0134   -4.1479 H         1 <0>         0.0630
     58 H20         4.5037    7.6265   -1.1030 H         1 <0>         0.0807
     59 H21         4.3115    8.1522   -2.7765 H         1 <0>         0.0380
     60 H22         2.5627    6.7687   -4.1331 H         1 <0>         0.0484
     61 H23         1.9139    8.1541   -3.2580 H         1 <0>         0.0697
     62 H24         4.5519    4.0254   -2.6387 H         1 <0>         0.0843
     63 H25         5.1122    3.0167    5.5382 H         1 <0>         0.0831
     64 H26        -0.6211    3.4755   -1.7762 H         1 <0>         0.0704
     65 H27        -0.3254    3.8127   -3.4698 H         1 <0>         0.0718
     66 H28         7.6494    5.4516   -0.0948 H         1 <0>         0.0606
     67 H29         8.8216    4.2418    0.4157 H         1 <0>         0.0458
     68 H30         8.0356    6.7709    1.9287 H         1 <0>         0.0375
     69 H31         9.1825    5.5824    2.5383 H         1 <0>         0.0392
     70 H32         6.2171    4.9575    1.8728 H         1 <0>         0.0606
     71 H33         7.3929    3.7874    2.4660 H         1 <0>         0.0579
     72 H34         9.5108    7.2416   -0.0285 H         1 <0>         0.0571
     73 H35        10.6706    6.0303    0.5375 H         1 <0>         0.0503
     74 H36         7.0421    2.3587    0.4881 H         1 <0>         0.0993
     75 H37         0.7364    6.6054   -0.5173 H         1 <0>         0.3700
     76 H38        -0.0926    5.1211   -0.1128 H         1 <0>         0.3660
     77 H39        11.2163    8.3531    1.3147 H         1 <0>         0.3465
     78 H40        10.4498    7.6340    2.7108 H         1 <0>         0.3446
     79 H41         5.3467    0.8812    3.5430 H         1 <0>         0.3148
     80 H42         6.1527    3.1949   -1.3636 H         1 <0>         0.3220
@<TRIPOS>BOND
     1    1    2 ar
     2    1    3 ar
     3    2    4 ar
     4    3    5 ar
     5    4    6 ar
     6    5    6 ar
     7    6   23 1
     8    7   22 1
     9    7   29 am
    10    7   35 2
    11    8    9 1
    12    8   28 1
    13    8   36 2
    14    9   33 am
    15    9   37 2
    16   10   20 1
    17   10   34 am
    18   10   38 2
    19   11   12 1
    20   11   13 1
    21   12   14 1
    22   13   15 1
    23   14   21 1
    24   15   21 1
    25   16   18 1
    26   16   20 1
    27   17   19 1
    28   17   22 1
    29   18   30 1
    30   19   30 1
    31   20   29 1
    32   21   33 1
    33   22   23 1
    34   22   31 1
    35   24   25 1
    36   24   26 1
    37   25   27 1
    38   26   28 1
    39   27   32 1
    40   28   34 1
    41   29   30 1
    42    1   39 1
    43    2   40 1
    44    3   41 1
    45    4   42 1
    46    5   43 1
    47   11   44 1
    48   11   45 1
    49   12   46 1
    50   12   47 1
    51   13   48 1
    52   13   49 1
    53   14   50 1
    54   14   51 1
    55   15   52 1
    56   15   53 1
    57   16   54 1
    58   16   55 1
    59   17   56 1
    60   17   57 1
    61   18   58 1
    62   18   59 1
    63   19   60 1
    64   19   61 1
    65   20   62 1
    66   21   63 1
    67   23   64 1
    68   23   65 1
    69   24   66 1
    70   24   67 1
    71   25   68 1
    72   25   69 1
    73   26   70 1
    74   26   71 1
    75   27   72 1
    76   27   73 1
    77   28   74 1
    78   31   75 1
    79   31   76 1
    80   32   77 1
    81   32   78 1
    82   33   79 1
    83   34   80 1
@<TRIPOS>MOLECULE
1a46_ligand_283
   80    83     0     0     0
SMALL
USER_CHARGES

mmff94s_NoEstat = 87.33
@<TRIPOS>ATOM
      1 C1          5.9504   -1.3642  -10.1903 C.ar      1 <0>        -0.1300
      2 C2          6.6765   -1.8241   -9.0918 C.ar      1 <0>        -0.1323
      3 C3          5.5463   -0.0305  -10.2504 C.ar      1 <0>        -0.1309
      4 C4          6.9984   -0.9504   -8.0532 C.ar      1 <0>        -0.1275
      5 C5          5.8681    0.8432   -9.2119 C.ar      1 <0>        -0.1272
      6 C6          6.5921    0.3776   -8.1201 C.ar      1 <0>        -0.0843
      7 C7          6.1974    2.2868   -4.7798 C.2       1 <0>         0.6709
      8 C8          5.2358    2.3798    1.5634 C.2       1 <0>         0.4867
      9 C9          5.6522    1.1980    2.3894 C.2       1 <0>         0.5883
     10 C10         5.7098    2.8119   -1.6475 C.2       1 <0>         0.6572
     11 C11        10.1110    1.3481    4.5092 C.3       1 <0>        -0.0802
     12 C12         9.6462    0.6914    3.2120 C.3       1 <0>        -0.0765
     13 C13         8.9753    2.0862    5.2128 C.3       1 <0>        -0.0774
     14 C14         8.4366   -0.2156    3.4426 C.3       1 <0>        -0.0953
     15 C15         7.7675    1.1758    5.4389 C.3       1 <0>        -0.0906
     16 C16         3.6723    3.8570   -2.6681 C.3       1 <0>        -0.0871
     17 C17         4.4858    1.7161   -6.5463 C.3       1 <0>        -0.0716
     18 C18         2.9535    2.6133   -3.1875 C.3       1 <0>         0.1333
     19 C19         3.4659    2.2898   -5.5476 C.3       1 <0>         0.1246
     20 C20         5.1372    3.5153   -2.8394 C.3       1 <0>         0.0606
     21 C21         7.2794    0.5030    4.1490 C.3       1 <0>         0.1012
     22 C22         5.8481    1.3265   -5.9256 C.3       1 <0>         0.1554
     23 C23         6.9383    1.3175   -7.0029 C.3       1 <0>        -0.0356
     24 C24         6.0158    5.3379    2.0114 C.3       1 <0>        -0.0795
     25 C25         6.7209    6.4716    2.7653 C.3       1 <0>        -0.1203
     26 C26         6.9719    4.2276    1.5544 C.3       1 <0>        -0.0920
     27 C27         5.7742    7.5909    3.1979 C.3       1 <0>         0.1502
     28 C28         6.2906    3.1130    0.7514 C.3       1 <0>         0.0224
     29 N1          5.1345    2.5635   -3.9339 N.am      1 <0>        -0.3553
     30 N2          3.8653    2.0037   -4.1710 N.3       1 <0>        -0.4320
     31 N3          5.7803   -0.0123   -5.3216 N.3       1 <0>        -0.9031
     32 N4          4.7531    7.0666    4.0988 N.3       1 <0>        -0.9068
     33 N5          6.6784    1.4957    3.2556 N.am      1 <0>        -0.5526
     34 N6          5.7762    3.5917   -0.5046 N.am      1 <0>        -0.5576
     35 O1          7.3278    2.7504   -4.6301 O.2       1 <0>        -0.6710
     36 O2          4.0675    2.7325    1.6631 O.2       1 <0>        -0.4901
     37 O3          5.0785    0.1378    2.2009 O.2       1 <0>        -0.5902
     38 O4          6.0670    1.6440   -1.7490 O.2       1 <0>        -0.5833
     39 H1          5.6997   -2.0446  -10.9989 H         1 <0>         0.1320
     40 H2          6.9911   -2.8626   -9.0451 H         1 <0>         0.1324
     41 H3          4.9808    0.3274  -11.1059 H         1 <0>         0.1328
     42 H4          7.5644   -1.3176   -7.2012 H         1 <0>         0.1324
     43 H5          5.5489    1.8806   -9.2673 H         1 <0>         0.1434
     44 H6         10.5143    0.5795    5.1802 H         1 <0>         0.0405
     45 H7         10.9289    2.0459    4.2969 H         1 <0>         0.0421
     46 H8          9.3936    1.4674    2.4794 H         1 <0>         0.0362
     47 H9         10.4670    0.1056    2.7825 H         1 <0>         0.0439
     48 H10         9.3291    2.4721    6.1757 H         1 <0>         0.0350
     49 H11         8.6777    2.9552    4.6136 H         1 <0>         0.0428
     50 H12         8.0993   -0.6177    2.4795 H         1 <0>         0.0663
     51 H13         8.7485   -1.0728    4.0530 H         1 <0>         0.0466
     52 H14         8.0408    0.3987    6.1641 H         1 <0>         0.0493
     53 H15         6.9561    1.7598    5.8899 H         1 <0>         0.0520
     54 H16         3.4181    4.7133   -3.3051 H         1 <0>         0.0915
     55 H17         3.3944    4.0971   -1.6373 H         1 <0>         0.0601
     56 H18         4.0497    0.8441   -7.0524 H         1 <0>         0.0688
     57 H19         4.6431    2.4675   -7.3320 H         1 <0>         0.0630
     58 H20         2.8170    1.9026   -2.3635 H         1 <0>         0.0807
     59 H21         1.9588    2.8453   -3.5837 H         1 <0>         0.0380
     60 H22         3.3744    3.3723   -5.7123 H         1 <0>         0.0484
     61 H23         2.4818    1.8533   -5.7569 H         1 <0>         0.0697
     62 H24         5.7646    4.3810   -3.0694 H         1 <0>         0.0843
     63 H25         6.4839   -0.2127    4.3813 H         1 <0>         0.0831
     64 H26         7.8868    1.0311   -6.5450 H         1 <0>         0.0704
     65 H27         7.0672    2.3317   -7.3854 H         1 <0>         0.0718
     66 H28         5.2579    4.9142    2.6804 H         1 <0>         0.0606
     67 H29         5.4809    5.7546    1.1500 H         1 <0>         0.0458
     68 H30         7.2000    6.0392    3.6534 H         1 <0>         0.0375
     69 H31         7.5258    6.8807    2.1417 H         1 <0>         0.0392
     70 H32         7.4599    3.7926    2.4354 H         1 <0>         0.0606
     71 H33         7.7645    4.6634    0.9347 H         1 <0>         0.0579
     72 H34         5.2908    8.0386    2.3228 H         1 <0>         0.0571
     73 H35         6.3225    8.3806    3.7198 H         1 <0>         0.0503
     74 H36         7.0421    2.3587    0.4881 H         1 <0>         0.0993
     75 H37         4.9287   -0.2795   -4.8849 H         1 <0>         0.3700
     76 H38         6.6336   -0.5056   -5.1950 H         1 <0>         0.3660
     77 H39         4.0028    7.6695    4.3608 H         1 <0>         0.3465
     78 H40         4.9421    6.2118    4.5770 H         1 <0>         0.3446
     79 H41         7.0352    2.4464    3.2766 H         1 <0>         0.3148
     80 H42         5.4441    4.5531   -0.5557 H         1 <0>         0.3220
@<TRIPOS>BOND
     1    1    2 ar
     2    1    3 ar
     3    2    4 ar
     4    3    5 ar
     5    4    6 ar
     6    5    6 ar
     7    6   23 1
     8    7   22 1
     9    7   29 am
    10    7   35 2
    11    8    9 1
    12    8   28 1
    13    8   36 2
    14    9   33 am
    15    9   37 2
    16   10   20 1
    17   10   34 am
    18   10   38 2
    19   11   12 1
    20   11   13 1
    21   12   14 1
    22   13   15 1
    23   14   21 1
    24   15   21 1
    25   16   18 1
    26   16   20 1
    27   17   19 1
    28   17   22 1
    29   18   30 1
    30   19   30 1
    31   20   29 1
    32   21   33 1
    33   22   23 1
    34   22   31 1
    35   24   25 1
    36   24   26 1
    37   25   27 1
    38   26   28 1
    39   27   32 1
    40   28   34 1
    41   29   30 1
    42    1   39 1
    43    2   40 1
    44    3   41 1
    45    4   42 1
    46    5   43 1
    47   11   44 1
    48   11   45 1
    49   12   46 1
    50   12   47 1
    51   13   48 1
    52   13   49 1
    53   14   50 1
    54   14   51 1
    55   15   52 1
    56   15   53 1
    57   16   54 1
    58   16   55 1
    59   17   56 1
    60   17   57 1
    61   18   58 1
    62   18   59 1
    63   19   60 1
    64   19   61 1
    65   20   62 1
    66   21   63 1
    67   23   64 1
    68   23   65 1
    69   24   66 1
    70   24   67 1
    71   25   68 1
    72   25   69 1
    73   26   70 1
    74   26   71 1
    75   27   72 1
    76   27   73 1
    77   28   74 1
    78   31   75 1
    79   31   76 1
    80   32   77 1
    81   32   78 1
    82   33   79 1
    83   34   80 1
@<TRIPOS>MOLECULE
1a46_ligand_284
   80    83     0     0     0
SMALL
USER_CHARGES

mmff94s_NoEstat = 87.36
@<TRIPOS>ATOM
      1 C1         11.0121    9.2104   -7.9325 C.ar      1 <0>        -0.1300
      2 C2         11.5385    8.8832   -6.6829 C.ar      1 <0>        -0.1323
      3 C3          9.6345    9.1559   -8.1449 C.ar      1 <0>        -0.1309
      4 C4         10.6874    8.5015   -5.6458 C.ar      1 <0>        -0.1275
      5 C5          8.7834    8.7742   -7.1078 C.ar      1 <0>        -0.1272
      6 C6          9.3154    8.4495   -5.8650 C.ar      1 <0>        -0.0843
      7 C7          7.2411    6.0968   -3.6024 C.2       1 <0>         0.6709
      8 C8          5.2358    2.3798    1.5634 C.2       1 <0>         0.4867
      9 C9          4.0737    1.7586    0.8450 C.2       1 <0>         0.5883
     10 C10         6.5256    3.6321   -1.6689 C.2       1 <0>         0.6572
     11 C11         1.7926   -2.0333    3.0392 C.3       1 <0>        -0.0802
     12 C12         2.8691   -2.0092    1.9574 C.3       1 <0>        -0.0765
     13 C13         1.4148   -0.6275    3.4983 C.3       1 <0>        -0.0774
     14 C14         2.4660   -1.1175    0.7822 C.3       1 <0>        -0.0953
     15 C15         1.0147    0.2608    2.3194 C.3       1 <0>        -0.0906
     16 C16         5.2113    3.0694   -3.7284 C.3       1 <0>        -0.0871
     17 C17         7.6012    6.0599   -6.1012 C.3       1 <0>        -0.0716
     18 C18         6.3446    2.7580   -4.7039 C.3       1 <0>         0.1333
     19 C19         6.8355    4.7264   -6.0536 C.3       1 <0>         0.1246
     20 C20         5.7868    4.1659   -2.8575 C.3       1 <0>         0.0606
     21 C21         2.0813    0.3030    1.2170 C.3       1 <0>         0.1012
     22 C22         8.1773    6.5224   -4.7422 C.3       1 <0>         0.1554
     23 C23         8.4000    8.0389   -4.7494 C.3       1 <0>        -0.0356
     24 C24         8.0800    4.9598    0.7851 C.3       1 <0>        -0.0795
     25 C25         8.7880    6.0338    1.6192 C.3       1 <0>        -0.1203
     26 C26         6.9719    4.2276    1.5544 C.3       1 <0>        -0.0920
     27 C27         9.9095    6.7454    0.8629 C.3       1 <0>         0.1502
     28 C28         6.2906    3.1130    0.7514 C.3       1 <0>         0.0224
     29 N1          6.7674    4.7991   -3.7183 N.am      1 <0>        -0.3553
     30 N2          7.1280    4.0001   -4.8193 N.3       1 <0>        -0.4320
     31 N3          9.4643    5.8648   -4.4722 N.3       1 <0>        -0.9031
     32 N4         10.5470    7.7366    1.7233 N.3       1 <0>        -0.9068
     33 N5          3.2649    1.0281    1.6841 N.am      1 <0>        -0.5526
     34 N6          5.7762    3.5917   -0.5046 N.am      1 <0>        -0.5576
     35 O1          6.9567    6.8465   -2.6685 O.2       1 <0>        -0.6710
     36 O2          5.3022    2.1819    2.7699 O.2       1 <0>        -0.4901
     37 O3          3.9822    1.9394   -0.3582 O.2       1 <0>        -0.5902
     38 O4          7.6924    3.2783   -1.7917 O.2       1 <0>        -0.5833
     39 H1         11.6747    9.5075   -8.7400 H         1 <0>         0.1320
     40 H2         12.6111    8.9257   -6.5176 H         1 <0>         0.1324
     41 H3          9.2248    9.4105   -9.1180 H         1 <0>         0.1328
     42 H4         11.1066    8.2484   -4.6756 H         1 <0>         0.1324
     43 H5          7.7115    8.7346   -7.2826 H         1 <0>         0.1434
     44 H6          0.9001   -2.5398    2.6511 H         1 <0>         0.0405
     45 H7          2.1436   -2.6194    3.8961 H         1 <0>         0.0421
     46 H8          3.8122   -1.6516    2.3880 H         1 <0>         0.0362
     47 H9          3.0515   -3.0286    1.5983 H         1 <0>         0.0439
     48 H10         0.5852   -0.6849    4.2123 H         1 <0>         0.0350
     49 H11         2.2609   -0.1774    4.0315 H         1 <0>         0.0428
     50 H12         3.2898   -1.0805    0.0591 H         1 <0>         0.0663
     51 H13         1.6118   -1.5754    0.2674 H         1 <0>         0.0466
     52 H14         0.0770   -0.1178    1.8931 H         1 <0>         0.0493
     53 H15         0.8108    1.2743    2.6856 H         1 <0>         0.0520
     54 H16         4.3507    3.4578   -4.2870 H         1 <0>         0.0915
     55 H17         4.8908    2.1856   -3.1683 H         1 <0>         0.0601
     56 H18         8.4120    5.9885   -6.8390 H         1 <0>         0.0688
     57 H19         6.9149    6.8257   -6.4876 H         1 <0>         0.0630
     58 H20         6.9926    1.9855   -4.2725 H         1 <0>         0.0807
     59 H21         5.9735    2.3729   -5.6602 H         1 <0>         0.0380
     60 H22         5.7592    4.9288   -6.1435 H         1 <0>         0.0484
     61 H23         7.1185    4.1245   -6.9255 H         1 <0>         0.0697
     62 H24         5.0406    4.8864   -2.5107 H         1 <0>         0.0843
     63 H25         1.7044    0.8657    0.3566 H         1 <0>         0.0831
     64 H26         8.8151    8.3408   -3.7861 H         1 <0>         0.0704
     65 H27         7.4343    8.5386   -4.8464 H         1 <0>         0.0718
     66 H28         7.6494    5.4516   -0.0948 H         1 <0>         0.0606
     67 H29         8.8216    4.2418    0.4157 H         1 <0>         0.0458
     68 H30         8.0356    6.7709    1.9287 H         1 <0>         0.0375
     69 H31         9.1825    5.5824    2.5383 H         1 <0>         0.0392
     70 H32         6.2171    4.9575    1.8728 H         1 <0>         0.0606
     71 H33         7.3929    3.7874    2.4660 H         1 <0>         0.0579
     72 H34         9.5108    7.2416   -0.0285 H         1 <0>         0.0571
     73 H35        10.6706    6.0303    0.5375 H         1 <0>         0.0503
     74 H36         7.0421    2.3587    0.4881 H         1 <0>         0.0993
     75 H37         9.5764    4.9261   -4.7778 H         1 <0>         0.3700
     76 H38        10.0811    6.3037   -3.8286 H         1 <0>         0.3660
     77 H39        11.2163    8.3531    1.3147 H         1 <0>         0.3465
     78 H40        10.4498    7.6340    2.7108 H         1 <0>         0.3446
     79 H41         3.4989    0.9899    2.6717 H         1 <0>         0.3148
     80 H42         4.8120    3.9176   -0.5391 H         1 <0>         0.3220
@<TRIPOS>BOND
     1    1    2 ar
     2    1    3 ar
     3    2    4 ar
     4    3    5 ar
     5    4    6 ar
     6    5    6 ar
     7    6   23 1
     8    7   22 1
     9    7   29 am
    10    7   35 2
    11    8    9 1
    12    8   28 1
    13    8   36 2
    14    9   33 am
    15    9   37 2
    16   10   20 1
    17   10   34 am
    18   10   38 2
    19   11   12 1
    20   11   13 1
    21   12   14 1
    22   13   15 1
    23   14   21 1
    24   15   21 1
    25   16   18 1
    26   16   20 1
    27   17   19 1
    28   17   22 1
    29   18   30 1
    30   19   30 1
    31   20   29 1
    32   21   33 1
    33   22   23 1
    34   22   31 1
    35   24   25 1
    36   24   26 1
    37   25   27 1
    38   26   28 1
    39   27   32 1
    40   28   34 1
    41   29   30 1
    42    1   39 1
    43    2   40 1
    44    3   41 1
    45    4   42 1
    46    5   43 1
    47   11   44 1
    48   11   45 1
    49   12   46 1
    50   12   47 1
    51   13   48 1
    52   13   49 1
    53   14   50 1
    54   14   51 1
    55   15   52 1
    56   15   53 1
    57   16   54 1
    58   16   55 1
    59   17   56 1
    60   17   57 1
    61   18   58 1
    62   18   59 1
    63   19   60 1
    64   19   61 1
    65   20   62 1
    66   21   63 1
    67   23   64 1
    68   23   65 1
    69   24   66 1
    70   24   67 1
    71   25   68 1
    72   25   69 1
    73   26   70 1
    74   26   71 1
    75   27   72 1
    76   27   73 1
    77   28   74 1
    78   31   75 1
    79   31   76 1
    80   32   77 1
    81   32   78 1
    82   33   79 1
    83   34   80 1
@<TRIPOS>MOLECULE
1a46_ligand_285
   80    83     0     0     0
SMALL
USER_CHARGES

mmff94s_NoEstat = 87.38
@<TRIPOS>ATOM
      1 C1          9.3427    1.2226  -10.2936 C.ar      1 <0>        -0.1300
      2 C2          9.9666    0.8172   -9.1138 C.ar      1 <0>        -0.1323
      3 C3          8.4336    2.2805  -10.2739 C.ar      1 <0>        -0.1309
      4 C4          9.6814    1.4695   -7.9143 C.ar      1 <0>        -0.1275
      5 C5          8.1485    2.9328   -9.0744 C.ar      1 <0>        -0.1272
      6 C6          8.7742    2.5231   -7.9024 C.ar      1 <0>        -0.0843
      7 C7          6.9710    3.2795   -4.5657 C.2       1 <0>         0.6709
      8 C8          5.2358    2.3798    1.5634 C.2       1 <0>         0.4867
      9 C9          5.6522    1.1980    2.3894 C.2       1 <0>         0.5883
     10 C10         5.7098    2.8119   -1.6475 C.2       1 <0>         0.6572
     11 C11        10.1110    1.3481    4.5092 C.3       1 <0>        -0.0802
     12 C12         9.6462    0.6914    3.2120 C.3       1 <0>        -0.0765
     13 C13         8.9753    2.0862    5.2128 C.3       1 <0>        -0.0774
     14 C14         8.4366   -0.2156    3.4426 C.3       1 <0>        -0.0953
     15 C15         7.7675    1.1758    5.4389 C.3       1 <0>        -0.0906
     16 C16         3.6624    3.2324   -3.0320 C.3       1 <0>        -0.0871
     17 C17         6.0388    2.5547   -6.7975 C.3       1 <0>        -0.0716
     18 C18         3.6514    1.9752   -3.8994 C.3       1 <0>         0.1333
     19 C19         4.6996    2.4463   -6.0480 C.3       1 <0>         0.1246
     20 C20         5.1372    3.5153   -2.8394 C.3       1 <0>         0.0606
     21 C21         7.2794    0.5030    4.1490 C.3       1 <0>         0.1012
     22 C22         7.2891    2.5653   -5.8869 C.3       1 <0>         0.1554
     23 C23         8.4675    3.2247   -6.6121 C.3       1 <0>        -0.0356
     24 C24         6.0158    5.3379    2.0114 C.3       1 <0>        -0.0795
     25 C25         6.7209    6.4716    2.7653 C.3       1 <0>        -0.1203
     26 C26         6.9719    4.2276    1.5544 C.3       1 <0>        -0.0920
     27 C27         7.4119    6.0077    4.0472 C.3       1 <0>         0.1502
     28 C28         6.2906    3.1130    0.7514 C.3       1 <0>         0.0224
     29 N1          5.7488    2.9259   -4.0152 N.am      1 <0>        -0.3553
     30 N2          4.9069    2.0073   -4.6693 N.3       1 <0>        -0.4320
     31 N3          7.6768    1.1953   -5.5201 N.3       1 <0>        -0.9031
     32 N4          8.0424    7.1400    4.7175 N.3       1 <0>        -0.9068
     33 N5          6.6784    1.4957    3.2556 N.am      1 <0>        -0.5526
     34 N6          5.7762    3.5917   -0.5046 N.am      1 <0>        -0.5576
     35 O1          7.7474    4.0812   -4.0464 O.2       1 <0>        -0.6710
     36 O2          4.0675    2.7325    1.6631 O.2       1 <0>        -0.4901
     37 O3          5.0785    0.1378    2.2009 O.2       1 <0>        -0.5902
     38 O4          6.0670    1.6440   -1.7490 O.2       1 <0>        -0.5833
     39 H1          9.5646    0.7147  -11.2275 H         1 <0>         0.1320
     40 H2         10.6743   -0.0064   -9.1292 H         1 <0>         0.1324
     41 H3          7.9478    2.5960  -11.1926 H         1 <0>         0.1328
     42 H4         10.1723    1.1467   -7.0000 H         1 <0>         0.1324
     43 H5          7.4388    3.7559   -9.0687 H         1 <0>         0.1434
     44 H6         10.5143    0.5795    5.1802 H         1 <0>         0.0405
     45 H7         10.9289    2.0459    4.2969 H         1 <0>         0.0421
     46 H8          9.3936    1.4674    2.4794 H         1 <0>         0.0362
     47 H9         10.4670    0.1056    2.7825 H         1 <0>         0.0439
     48 H10         9.3291    2.4721    6.1757 H         1 <0>         0.0350
     49 H11         8.6777    2.9552    4.6136 H         1 <0>         0.0428
     50 H12         8.0993   -0.6177    2.4795 H         1 <0>         0.0663
     51 H13         8.7485   -1.0728    4.0530 H         1 <0>         0.0466
     52 H14         8.0408    0.3987    6.1641 H         1 <0>         0.0493
     53 H15         6.9561    1.7598    5.8899 H         1 <0>         0.0520
     54 H16         3.1996    4.0578   -3.5869 H         1 <0>         0.0915
     55 H17         3.1150    3.0948   -2.0945 H         1 <0>         0.0601
     56 H18         6.1186    1.7328   -7.5220 H         1 <0>         0.0688
     57 H19         6.0134    3.4760   -7.3953 H         1 <0>         0.0630
     58 H20         3.6705    1.0888   -3.2538 H         1 <0>         0.0807
     59 H21         2.7495    1.9066   -4.5175 H         1 <0>         0.0380
     60 H22         4.1937    3.4213   -6.0771 H         1 <0>         0.0484
     61 H23         4.0529    1.7380   -6.5798 H         1 <0>         0.0697
     62 H24         5.3721    4.5807   -2.7630 H         1 <0>         0.0843
     63 H25         6.4839   -0.2127    4.3813 H         1 <0>         0.0831
     64 H26         9.3395    3.2124   -5.9558 H         1 <0>         0.0704
     65 H27         8.2279    4.2735   -6.7972 H         1 <0>         0.0718
     66 H28         5.2579    4.9142    2.6804 H         1 <0>         0.0606
     67 H29         5.4809    5.7546    1.1500 H         1 <0>         0.0458
     68 H30         7.4668    6.9122    2.0910 H         1 <0>         0.0375
     69 H31         5.9973    7.2642    2.9945 H         1 <0>         0.0392
     70 H32         7.4599    3.7926    2.4354 H         1 <0>         0.0606
     71 H33         7.7645    4.6634    0.9347 H         1 <0>         0.0579
     72 H34         8.1719    5.2532    3.8170 H         1 <0>         0.0571
     73 H35         6.6895    5.5581    4.7347 H         1 <0>         0.0503
     74 H36         7.0421    2.3587    0.4881 H         1 <0>         0.0993
     75 H37         6.9507    0.5323   -5.3773 H         1 <0>         0.3700
     76 H38         8.6161    1.0420   -5.2343 H         1 <0>         0.3660
     77 H39         8.6273    6.9547    5.5039 H         1 <0>         0.3465
     78 H40         7.7128    8.0567    4.5024 H         1 <0>         0.3446
     79 H41         7.0352    2.4464    3.2766 H         1 <0>         0.3148
     80 H42         5.4441    4.5531   -0.5557 H         1 <0>         0.3220
@<TRIPOS>BOND
     1    1    2 ar
     2    1    3 ar
     3    2    4 ar
     4    3    5 ar
     5    4    6 ar
     6    5    6 ar
     7    6   23 1
     8    7   22 1
     9    7   29 am
    10    7   35 2
    11    8    9 1
    12    8   28 1
    13    8   36 2
    14    9   33 am
    15    9   37 2
    16   10   20 1
    17   10   34 am
    18   10   38 2
    19   11   12 1
    20   11   13 1
    21   12   14 1
    22   13   15 1
    23   14   21 1
    24   15   21 1
    25   16   18 1
    26   16   20 1
    27   17   19 1
    28   17   22 1
    29   18   30 1
    30   19   30 1
    31   20   29 1
    32   21   33 1
    33   22   23 1
    34   22   31 1
    35   24   25 1
    36   24   26 1
    37   25   27 1
    38   26   28 1
    39   27   32 1
    40   28   34 1
    41   29   30 1
    42    1   39 1
    43    2   40 1
    44    3   41 1
    45    4   42 1
    46    5   43 1
    47   11   44 1
    48   11   45 1
    49   12   46 1
    50   12   47 1
    51   13   48 1
    52   13   49 1
    53   14   50 1
    54   14   51 1
    55   15   52 1
    56   15   53 1
    57   16   54 1
    58   16   55 1
    59   17   56 1
    60   17   57 1
    61   18   58 1
    62   18   59 1
    63   19   60 1
    64   19   61 1
    65   20   62 1
    66   21   63 1
    67   23   64 1
    68   23   65 1
    69   24   66 1
    70   24   67 1
    71   25   68 1
    72   25   69 1
    73   26   70 1
    74   26   71 1
    75   27   72 1
    76   27   73 1
    77   28   74 1
    78   31   75 1
    79   31   76 1
    80   32   77 1
    81   32   78 1
    82   33   79 1
    83   34   80 1
@<TRIPOS>MOLECULE
1a46_ligand_286
   80    83     0     0     0
SMALL
USER_CHARGES

mmff94s_NoEstat = 87.43
@<TRIPOS>ATOM
      1 C1         -3.8356    2.2713   -3.8796 C.ar      1 <0>        -0.1300
      2 C2         -3.3096    1.7701   -2.6889 C.ar      1 <0>        -0.1323
      3 C3         -2.9803    2.7299   -4.8815 C.ar      1 <0>        -0.1309
      4 C4         -1.9283    1.7276   -2.5000 C.ar      1 <0>        -0.1275
      5 C5         -1.5989    2.6874   -4.6926 C.ar      1 <0>        -0.1272
      6 C6         -1.0819    2.1865   -3.5031 C.ar      1 <0>        -0.0843
      7 C7          2.4376    3.3924   -2.4466 C.2       1 <0>         0.6709
      8 C8          5.2358    2.3798    1.5634 C.2       1 <0>         0.4867
      9 C9          4.0737    1.7586    0.8450 C.2       1 <0>         0.5883
     10 C10         4.7954    4.5647   -0.6048 C.2       1 <0>         0.6572
     11 C11         4.0644   -3.1378    0.1954 C.3       1 <0>        -0.0802
     12 C12         4.9349   -2.3079   -0.7445 C.3       1 <0>        -0.0765
     13 C13         3.3449   -2.2675    1.2224 C.3       1 <0>        -0.0774
     14 C14         4.1346   -1.1879   -1.4107 C.3       1 <0>        -0.0953
     15 C15         2.5480   -1.1477    0.5515 C.3       1 <0>        -0.0906
     16 C16         4.5014    6.3954   -2.2922 C.3       1 <0>        -0.0871
     17 C17         0.5366    4.6532   -3.5292 C.3       1 <0>        -0.0716
     18 C18         3.1192    6.9141   -1.9004 C.3       1 <0>         0.1333
     19 C19         1.4223    5.8937   -3.3205 C.3       1 <0>         0.1246
     20 C20         4.4137    4.9104   -2.0113 C.3       1 <0>         0.0606
     21 C21         3.4011   -0.2972   -0.3991 C.3       1 <0>         0.1012
     22 C22         0.9174    3.4339   -2.6568 C.3       1 <0>         0.1554
     23 C23         0.4040    2.1409   -3.2999 C.3       1 <0>        -0.0356
     24 C24         7.6485    3.7409    2.8432 C.3       1 <0>        -0.0795
     25 C25         8.2774    4.8743    3.6620 C.3       1 <0>        -0.1203
     26 C26         6.9719    4.2276    1.5544 C.3       1 <0>        -0.0920
     27 C27         8.9284    4.3945    4.9589 C.3       1 <0>         0.1502
     28 C28         6.2906    3.1130    0.7514 C.3       1 <0>         0.0224
     29 N1          2.9983    4.6251   -2.1500 N.am      1 <0>        -0.3553
     30 N2          2.1971    5.7804   -2.0863 N.3       1 <0>        -0.4320
     31 N3          0.3290    3.5510   -1.3145 N.3       1 <0>        -0.9031
     32 N4          9.4866    5.5266    5.6910 N.3       1 <0>        -0.9068
     33 N5          4.3625    0.5037    0.3619 N.am      1 <0>        -0.5526
     34 N6          5.7762    3.5917   -0.5046 N.am      1 <0>        -0.5576
     35 O1          3.0852    2.3485   -2.5237 O.2       1 <0>        -0.6710
     36 O2          5.3022    2.1819    2.7699 O.2       1 <0>        -0.4901
     37 O3          3.0463    2.4099    0.7491 O.2       1 <0>        -0.5902
     38 O4          4.2448    5.1367    0.3286 O.2       1 <0>        -0.5833
     39 H1         -4.9112    2.3044   -4.0267 H         1 <0>         0.1320
     40 H2         -3.9757    1.4131   -1.9089 H         1 <0>         0.1324
     41 H3         -3.3900    3.1202   -5.8085 H         1 <0>         0.1328
     42 H4         -1.5275    1.3355   -1.5691 H         1 <0>         0.1324
     43 H5         -0.9402    3.0469   -5.4787 H         1 <0>         0.1434
     44 H6          3.3227   -3.6924   -0.3927 H         1 <0>         0.0405
     45 H7          4.6827   -3.8816    0.7106 H         1 <0>         0.0421
     46 H8          5.7747   -1.8806   -0.1833 H         1 <0>         0.0362
     47 H9          5.3667   -2.9577   -1.5143 H         1 <0>         0.0439
     48 H10         2.6703   -2.8890    1.8223 H         1 <0>         0.0350
     49 H11         4.0784   -1.8371    1.9148 H         1 <0>         0.0428
     50 H12         4.8088   -0.5817   -2.0279 H         1 <0>         0.0663
     51 H13         3.3981   -1.6353   -2.0902 H         1 <0>         0.0466
     52 H14         1.7203   -1.5929   -0.0152 H         1 <0>         0.0493
     53 H15         2.0985   -0.5129    1.3247 H         1 <0>         0.0520
     54 H16         4.6567    6.5575   -3.3661 H         1 <0>         0.0915
     55 H17         5.3043    6.8996   -1.7458 H         1 <0>         0.0601
     56 H18        -0.5135    4.9205   -3.3490 H         1 <0>         0.0688
     57 H19         0.5944    4.3761   -4.5907 H         1 <0>         0.0630
     58 H20         3.1200    7.1814   -0.8369 H         1 <0>         0.0807
     59 H21         2.8405    7.8136   -2.4605 H         1 <0>         0.0380
     60 H22         2.0843    6.0105   -4.1897 H         1 <0>         0.0484
     61 H23         0.7825    6.7837   -3.2878 H         1 <0>         0.0697
     62 H24         5.0094    4.2996   -2.6955 H         1 <0>         0.0843
     63 H25         2.7649    0.4200   -0.9282 H         1 <0>         0.0831
     64 H26         0.6750    1.2965   -2.6636 H         1 <0>         0.0704
     65 H27         0.9139    1.9924   -4.2536 H         1 <0>         0.0718
     66 H28         8.4445    3.0306    2.5915 H         1 <0>         0.0606
     67 H29         6.9275    3.2007    3.4679 H         1 <0>         0.0458
     68 H30         9.0354    5.3625    3.0356 H         1 <0>         0.0375
     69 H31         7.5157    5.6329    3.8824 H         1 <0>         0.0392
     70 H32         7.7210    4.7221    0.9235 H         1 <0>         0.0606
     71 H33         6.2174    4.9831    1.8035 H         1 <0>         0.0579
     72 H34         9.7251    3.6753    4.7403 H         1 <0>         0.0571
     73 H35         8.1937    3.8977    5.5994 H         1 <0>         0.0503
     74 H36         7.0421    2.3587    0.4881 H         1 <0>         0.0993
     75 H37         0.2633    4.4591   -0.9165 H         1 <0>         0.3700
     76 H38         0.2131    2.7172   -0.7867 H         1 <0>         0.3660
     77 H39        10.0430    5.3371    6.4969 H         1 <0>         0.3465
     78 H40         9.1331    6.4373    5.4892 H         1 <0>         0.3446
     79 H41         5.2837    0.1150    0.5408 H         1 <0>         0.3148
     80 H42         6.1527    3.1949   -1.3636 H         1 <0>         0.3220
@<TRIPOS>BOND
     1    1    2 ar
     2    1    3 ar
     3    2    4 ar
     4    3    5 ar
     5    4    6 ar
     6    5    6 ar
     7    6   23 1
     8    7   22 1
     9    7   29 am
    10    7   35 2
    11    8    9 1
    12    8   28 1
    13    8   36 2
    14    9   33 am
    15    9   37 2
    16   10   20 1
    17   10   34 am
    18   10   38 2
    19   11   12 1
    20   11   13 1
    21   12   14 1
    22   13   15 1
    23   14   21 1
    24   15   21 1
    25   16   18 1
    26   16   20 1
    27   17   19 1
    28   17   22 1
    29   18   30 1
    30   19   30 1
    31   20   29 1
    32   21   33 1
    33   22   23 1
    34   22   31 1
    35   24   25 1
    36   24   26 1
    37   25   27 1
    38   26   28 1
    39   27   32 1
    40   28   34 1
    41   29   30 1
    42    1   39 1
    43    2   40 1
    44    3   41 1
    45    4   42 1
    46    5   43 1
    47   11   44 1
    48   11   45 1
    49   12   46 1
    50   12   47 1
    51   13   48 1
    52   13   49 1
    53   14   50 1
    54   14   51 1
    55   15   52 1
    56   15   53 1
    57   16   54 1
    58   16   55 1
    59   17   56 1
    60   17   57 1
    61   18   58 1
    62   18   59 1
    63   19   60 1
    64   19   61 1
    65   20   62 1
    66   21   63 1
    67   23   64 1
    68   23   65 1
    69   24   66 1
    70   24   67 1
    71   25   68 1
    72   25   69 1
    73   26   70 1
    74   26   71 1
    75   27   72 1
    76   27   73 1
    77   28   74 1
    78   31   75 1
    79   31   76 1
    80   32   77 1
    81   32   78 1
    82   33   79 1
    83   34   80 1
@<TRIPOS>MOLECULE
1a46_ligand_287
   80    83     0     0     0
SMALL
USER_CHARGES

mmff94s_NoEstat = 87.49
@<TRIPOS>ATOM
      1 C1         11.2307    8.4980   -6.9074 C.ar      1 <0>        -0.1300
      2 C2         11.6037    8.0134   -5.6538 C.ar      1 <0>        -0.1323
      3 C3          9.8807    8.5885   -7.2468 C.ar      1 <0>        -0.1309
      4 C4         10.6268    7.6193   -4.7395 C.ar      1 <0>        -0.1275
      5 C5          8.9038    8.1943   -6.3325 C.ar      1 <0>        -0.1272
      6 C6          9.2832    7.7123   -5.0848 C.ar      1 <0>        -0.0843
      7 C7          6.8112    5.3648   -3.2584 C.2       1 <0>         0.6709
      8 C8          5.2358    2.3798    1.5634 C.2       1 <0>         0.4867
      9 C9          4.0737    1.7586    0.8450 C.2       1 <0>         0.5883
     10 C10         5.7098    2.8119   -1.6475 C.2       1 <0>         0.6572
     11 C11         0.4518    4.7141   -0.7499 C.3       1 <0>        -0.0802
     12 C12         0.4604    4.3542    0.7335 C.3       1 <0>        -0.0765
     13 C13         1.6276    4.0877   -1.4949 C.3       1 <0>        -0.0774
     14 C14         0.5251    2.8410    0.9450 C.3       1 <0>        -0.0953
     15 C15         1.6892    2.5750   -1.2783 C.3       1 <0>        -0.0906
     16 C16         4.5614    2.5584   -3.8616 C.3       1 <0>        -0.0871
     17 C17         7.4096    5.5196   -5.7065 C.3       1 <0>        -0.0716
     18 C18         5.7552    2.2338   -4.7574 C.3       1 <0>         0.1333
     19 C19         6.5359    4.2626   -5.8584 C.3       1 <0>         0.1246
     20 C20         5.1372    3.5153   -2.8394 C.3       1 <0>         0.0606
     21 C21         1.6997    2.1861    0.2060 C.3       1 <0>         0.1012
     22 C22         7.8862    5.8039   -4.2626 C.3       1 <0>         0.1554
     23 C23         8.2324    7.2883   -4.1013 C.3       1 <0>        -0.0356
     24 C24         7.6485    3.7409    2.8432 C.3       1 <0>        -0.0795
     25 C25         8.2774    4.8743    3.6620 C.3       1 <0>        -0.1203
     26 C26         6.9719    4.2276    1.5544 C.3       1 <0>        -0.0920
     27 C27         8.9284    4.3945    4.9589 C.3       1 <0>         0.1502
     28 C28         6.2906    3.1130    0.7514 C.3       1 <0>         0.0224
     29 N1          6.2461    4.1312   -3.5428 N.am      1 <0>        -0.3553
     30 N2          6.6457    3.4048   -4.6800 N.3       1 <0>        -0.4320
     31 N3          9.0821    5.0103   -3.9441 N.3       1 <0>        -0.9031
     32 N4          9.4866    5.5266    5.6910 N.3       1 <0>        -0.9068
     33 N5          2.9687    2.5774    0.8237 N.am      1 <0>        -0.5526
     34 N6          5.7762    3.5917   -0.5046 N.am      1 <0>        -0.5576
     35 O1          6.4995    6.0504   -2.2848 O.2       1 <0>        -0.6710
     36 O2          5.3022    2.1819    2.7699 O.2       1 <0>        -0.4901
     37 O3          4.2153    0.6340    0.3935 O.2       1 <0>        -0.5902
     38 O4          6.0670    1.6440   -1.7490 O.2       1 <0>        -0.5833
     39 H1         11.9913    8.8048   -7.6194 H         1 <0>         0.1320
     40 H2         12.6548    7.9430   -5.3897 H         1 <0>         0.1324
     41 H3          9.5904    8.9656   -8.2230 H         1 <0>         0.1328
     42 H4         10.9268    7.2430   -3.7651 H         1 <0>         0.1324
     43 H5          7.8545    8.2683   -6.6056 H         1 <0>         0.1434
     44 H6         -0.4874    4.3704   -1.2007 H         1 <0>         0.0405
     45 H7          0.4800    5.8035   -0.8654 H         1 <0>         0.0421
     46 H8          1.3175    4.8339    1.2211 H         1 <0>         0.0362
     47 H9         -0.4408    4.7532    1.2132 H         1 <0>         0.0439
     48 H10         1.5394    4.3016   -2.5662 H         1 <0>         0.0350
     49 H11         2.5628    4.5493   -1.1557 H         1 <0>         0.0428
     50 H12         0.5905    2.6301    2.0193 H         1 <0>         0.0663
     51 H13        -0.4122    2.3938    0.5899 H         1 <0>         0.0466
     52 H14         0.8190    2.1125   -1.7613 H         1 <0>         0.0493
     53 H15         2.5797    2.1759   -1.7790 H         1 <0>         0.0520
     54 H16         3.7944    3.0721   -4.4543 H         1 <0>         0.0915
     55 H17         4.1162    1.6608   -3.4217 H         1 <0>         0.0601
     56 H18         8.2801    5.4412   -6.3721 H         1 <0>         0.0688
     57 H19         6.8297    6.3763   -6.0759 H         1 <0>         0.0630
     58 H20         6.2922    1.3700   -4.3474 H         1 <0>         0.0807
     59 H21         5.4490    1.9715   -5.7762 H         1 <0>         0.0380
     60 H22         5.4939    4.5694   -6.0242 H         1 <0>         0.0484
     61 H23         6.8523    3.7181   -6.7562 H         1 <0>         0.0697
     62 H24         4.4225    4.2667   -2.4920 H         1 <0>         0.0843
     63 H25         1.6405    1.0972    0.3052 H         1 <0>         0.0831
     64 H26         8.5747    7.4635   -3.0797 H         1 <0>         0.0704
     65 H27         7.3253    7.8806   -4.2350 H         1 <0>         0.0718
     66 H28         8.4445    3.0306    2.5915 H         1 <0>         0.0606
     67 H29         6.9275    3.2007    3.4679 H         1 <0>         0.0458
     68 H30         9.0354    5.3625    3.0356 H         1 <0>         0.0375
     69 H31         7.5157    5.6329    3.8824 H         1 <0>         0.0392
     70 H32         7.7210    4.7221    0.9235 H         1 <0>         0.0606
     71 H33         6.2174    4.9831    1.8035 H         1 <0>         0.0579
     72 H34         9.7251    3.6753    4.7403 H         1 <0>         0.0571
     73 H35         8.1937    3.8977    5.5994 H         1 <0>         0.0503
     74 H36         7.0421    2.3587    0.4881 H         1 <0>         0.0993
     75 H37         9.1461    4.0964   -4.3289 H         1 <0>         0.3700
     76 H38         9.6671    5.3316   -3.2079 H         1 <0>         0.3660
     77 H39        10.0430    5.3371    6.4969 H         1 <0>         0.3465
     78 H40         9.1331    6.4373    5.4892 H         1 <0>         0.3446
     79 H41         3.0357    3.4942    1.2556 H         1 <0>         0.3148
     80 H42         5.4441    4.5531   -0.5557 H         1 <0>         0.3220
@<TRIPOS>BOND
     1    1    2 ar
     2    1    3 ar
     3    2    4 ar
     4    3    5 ar
     5    4    6 ar
     6    5    6 ar
     7    6   23 1
     8    7   22 1
     9    7   29 am
    10    7   35 2
    11    8    9 1
    12    8   28 1
    13    8   36 2
    14    9   33 am
    15    9   37 2
    16   10   20 1
    17   10   34 am
    18   10   38 2
    19   11   12 1
    20   11   13 1
    21   12   14 1
    22   13   15 1
    23   14   21 1
    24   15   21 1
    25   16   18 1
    26   16   20 1
    27   17   19 1
    28   17   22 1
    29   18   30 1
    30   19   30 1
    31   20   29 1
    32   21   33 1
    33   22   23 1
    34   22   31 1
    35   24   25 1
    36   24   26 1
    37   25   27 1
    38   26   28 1
    39   27   32 1
    40   28   34 1
    41   29   30 1
    42    1   39 1
    43    2   40 1
    44    3   41 1
    45    4   42 1
    46    5   43 1
    47   11   44 1
    48   11   45 1
    49   12   46 1
    50   12   47 1
    51   13   48 1
    52   13   49 1
    53   14   50 1
    54   14   51 1
    55   15   52 1
    56   15   53 1
    57   16   54 1
    58   16   55 1
    59   17   56 1
    60   17   57 1
    61   18   58 1
    62   18   59 1
    63   19   60 1
    64   19   61 1
    65   20   62 1
    66   21   63 1
    67   23   64 1
    68   23   65 1
    69   24   66 1
    70   24   67 1
    71   25   68 1
    72   25   69 1
    73   26   70 1
    74   26   71 1
    75   27   72 1
    76   27   73 1
    77   28   74 1
    78   31   75 1
    79   31   76 1
    80   32   77 1
    81   32   78 1
    82   33   79 1
    83   34   80 1
@<TRIPOS>MOLECULE
1a46_ligand_288
   80    83     0     0     0
SMALL
USER_CHARGES

mmff94s_NoEstat = 87.50
@<TRIPOS>ATOM
      1 C1          5.6982   13.0256   -2.9158 C.ar      1 <0>        -0.1300
      2 C2          6.1379   12.4463   -1.7256 C.ar      1 <0>        -0.1323
      3 C3          4.9080   12.2902   -3.7992 C.ar      1 <0>        -0.1309
      4 C4          5.7876   11.1315   -1.4188 C.ar      1 <0>        -0.1275
      5 C5          4.5577   10.9753   -3.4925 C.ar      1 <0>        -0.1272
      6 C6          4.9998   10.4046   -2.3043 C.ar      1 <0>        -0.0843
      7 C7          5.2783    6.5491   -2.1791 C.2       1 <0>         0.6709
      8 C8          5.2358    2.3798    1.5634 C.2       1 <0>         0.4867
      9 C9          4.0737    1.7586    0.8450 C.2       1 <0>         0.5883
     10 C10         6.5256    3.6321   -1.6689 C.2       1 <0>         0.6572
     11 C11         4.9178   -0.1813   -3.6183 C.3       1 <0>        -0.0802
     12 C12         4.3601    1.1806   -3.2131 C.3       1 <0>        -0.0765
     13 C13         5.2798   -1.0327   -2.4042 C.3       1 <0>        -0.0774
     14 C14         3.1836    1.0419   -2.2460 C.3       1 <0>        -0.0953
     15 C15         4.1009   -1.1664   -1.4392 C.3       1 <0>        -0.0906
     16 C16         6.3772    3.6983   -4.1707 C.3       1 <0>        -0.0871
     17 C17         5.8129    8.1649   -4.0442 C.3       1 <0>        -0.0716
     18 C18         7.4333    4.7567   -4.4831 C.3       1 <0>         0.1333
     19 C19         6.3652    6.9275   -4.7727 C.3       1 <0>         0.1246
     20 C20         5.7868    4.1659   -2.8575 C.3       1 <0>         0.0606
     21 C21         3.5216    0.1899   -1.0153 C.3       1 <0>         0.1012
     22 C22         5.6591    7.9981   -2.5141 C.3       1 <0>         0.1554
     23 C23         4.6229    8.9902   -1.9743 C.3       1 <0>        -0.0356
     24 C24         8.0800    4.9598    0.7851 C.3       1 <0>        -0.0795
     25 C25         8.7880    6.0338    1.6192 C.3       1 <0>        -0.1203
     26 C26         6.9719    4.2276    1.5544 C.3       1 <0>        -0.0920
     27 C27         9.9095    6.7454    0.8629 C.3       1 <0>         0.1502
     28 C28         6.2906    3.1130    0.7514 C.3       1 <0>         0.0224
     29 N1          6.0028    5.5999   -2.8834 N.am      1 <0>        -0.3553
     30 N2          6.9706    5.9918   -3.8269 N.3       1 <0>        -0.4320
     31 N3          6.9384    8.2454   -1.8330 N.3       1 <0>        -0.9031
     32 N4          9.3732    7.4215   -0.3138 N.3       1 <0>        -0.9068
     33 N5          4.4695    0.8988   -0.1529 N.am      1 <0>        -0.5526
     34 N6          5.7762    3.5917   -0.5046 N.am      1 <0>        -0.5576
     35 O1          4.4149    6.2702   -1.3473 O.2       1 <0>        -0.6710
     36 O2          5.3022    2.1819    2.7699 O.2       1 <0>        -0.4901
     37 O3          2.9489    2.0822    1.1900 O.2       1 <0>        -0.5902
     38 O4          7.6924    3.2783   -1.7917 O.2       1 <0>        -0.5833
     39 H1          5.9710   14.0494   -3.1547 H         1 <0>         0.1320
     40 H2          6.7531   13.0191   -1.0378 H         1 <0>         0.1324
     41 H3          4.5659   12.7413   -4.7260 H         1 <0>         0.1328
     42 H4          6.1348   10.6884   -0.4892 H         1 <0>         0.1324
     43 H5          3.9418   10.4100   -4.1868 H         1 <0>         0.1434
     44 H6          4.1729   -0.7122   -4.2240 H         1 <0>         0.0405
     45 H7          5.8027   -0.0446   -4.2501 H         1 <0>         0.0421
     46 H8          5.1542    1.7772   -2.7482 H         1 <0>         0.0362
     47 H9          4.0371    1.7257   -4.1075 H         1 <0>         0.0439
     48 H10         5.5975   -2.0280   -2.7352 H         1 <0>         0.0350
     49 H11         6.1350   -0.5837   -1.8849 H         1 <0>         0.0428
     50 H12         2.8539    2.0404   -1.9345 H         1 <0>         0.0663
     51 H13         2.3414    0.5806   -2.7774 H         1 <0>         0.0466
     52 H14         3.3114   -1.7547   -1.9241 H         1 <0>         0.0493
     53 H15         4.4214   -1.7321   -0.5559 H         1 <0>         0.0520
     54 H16         5.6043    3.7190   -4.9489 H         1 <0>         0.0915
     55 H17         6.7998    2.6898   -4.1286 H         1 <0>         0.0601
     56 H18         6.4556    9.0301   -4.2569 H         1 <0>         0.0688
     57 H19         4.8364    8.4048   -4.4864 H         1 <0>         0.0630
     58 H20         8.3862    4.4645   -4.0255 H         1 <0>         0.0807
     59 H21         7.6091    4.8610   -5.5594 H         1 <0>         0.0380
     60 H22         5.5493    6.4477   -5.3309 H         1 <0>         0.0484
     61 H23         7.1061    7.2537   -5.5124 H         1 <0>         0.0697
     62 H24         4.7253    3.9276   -2.7453 H         1 <0>         0.0843
     63 H25         2.6216    0.0369   -0.4106 H         1 <0>         0.0831
     64 H26         4.5381    8.8614   -0.8937 H         1 <0>         0.0704
     65 H27         3.6462    8.7482   -2.3975 H         1 <0>         0.0718
     66 H28         7.6494    5.4516   -0.0948 H         1 <0>         0.0606
     67 H29         8.8216    4.2418    0.4157 H         1 <0>         0.0458
     68 H30         8.0356    6.7709    1.9287 H         1 <0>         0.0375
     69 H31         9.1825    5.5824    2.5383 H         1 <0>         0.0392
     70 H32         6.2171    4.9575    1.8728 H         1 <0>         0.0606
     71 H33         7.3929    3.7874    2.4660 H         1 <0>         0.0579
     72 H34        10.6735    6.0252    0.5509 H         1 <0>         0.0571
     73 H35        10.3920    7.4923    1.5001 H         1 <0>         0.0503
     74 H36         7.0421    2.3587    0.4881 H         1 <0>         0.0993
     75 H37         7.7703    7.9574   -2.2937 H         1 <0>         0.3700
     76 H38         6.9090    8.4964   -0.8720 H         1 <0>         0.3660
     77 H39        10.0182    7.8250   -0.9589 H         1 <0>         0.3465
     78 H40         8.3988    7.6342   -0.3305 H         1 <0>         0.3446
     79 H41         5.4635    0.7487   -0.2981 H         1 <0>         0.3148
     80 H42         4.8120    3.9176   -0.5391 H         1 <0>         0.3220
@<TRIPOS>BOND
     1    1    2 ar
     2    1    3 ar
     3    2    4 ar
     4    3    5 ar
     5    4    6 ar
     6    5    6 ar
     7    6   23 1
     8    7   22 1
     9    7   29 am
    10    7   35 2
    11    8    9 1
    12    8   28 1
    13    8   36 2
    14    9   33 am
    15    9   37 2
    16   10   20 1
    17   10   34 am
    18   10   38 2
    19   11   12 1
    20   11   13 1
    21   12   14 1
    22   13   15 1
    23   14   21 1
    24   15   21 1
    25   16   18 1
    26   16   20 1
    27   17   19 1
    28   17   22 1
    29   18   30 1
    30   19   30 1
    31   20   29 1
    32   21   33 1
    33   22   23 1
    34   22   31 1
    35   24   25 1
    36   24   26 1
    37   25   27 1
    38   26   28 1
    39   27   32 1
    40   28   34 1
    41   29   30 1
    42    1   39 1
    43    2   40 1
    44    3   41 1
    45    4   42 1
    46    5   43 1
    47   11   44 1
    48   11   45 1
    49   12   46 1
    50   12   47 1
    51   13   48 1
    52   13   49 1
    53   14   50 1
    54   14   51 1
    55   15   52 1
    56   15   53 1
    57   16   54 1
    58   16   55 1
    59   17   56 1
    60   17   57 1
    61   18   58 1
    62   18   59 1
    63   19   60 1
    64   19   61 1
    65   20   62 1
    66   21   63 1
    67   23   64 1
    68   23   65 1
    69   24   66 1
    70   24   67 1
    71   25   68 1
    72   25   69 1
    73   26   70 1
    74   26   71 1
    75   27   72 1
    76   27   73 1
    77   28   74 1
    78   31   75 1
    79   31   76 1
    80   32   77 1
    81   32   78 1
    82   33   79 1
    83   34   80 1
@<TRIPOS>MOLECULE
1a46_ligand_289
   80    83     0     0     0
SMALL
USER_CHARGES

mmff94s_NoEstat = 87.53
@<TRIPOS>ATOM
      1 C1         -7.7455    8.1925  -11.7378 C.ar      1 <0>        -0.1300
      2 C2         -6.4538    8.7176  -11.7053 C.ar      1 <0>        -0.1323
      3 C3         -8.1013    7.1613  -10.8684 C.ar      1 <0>        -0.1309
      4 C4         -5.5176    8.2116  -10.8036 C.ar      1 <0>        -0.1275
      5 C5         -7.1651    6.6552   -9.9666 C.ar      1 <0>        -0.1272
      6 C6         -5.8794    7.1836   -9.9401 C.ar      1 <0>        -0.0843
      7 C7         -3.0518    4.9149   -8.5929 C.2       1 <0>         0.6709
      8 C8          2.7796    3.2097   -6.1637 C.2       1 <0>         0.4867
      9 C9          4.2587    3.4565   -6.1009 C.2       1 <0>         0.5883
     10 C10        -0.2306    3.3845   -8.4382 C.2       1 <0>         0.6572
     11 C11         7.9370    6.9641   -4.2618 C.3       1 <0>        -0.0802
     12 C12         7.3803    7.2916   -5.6445 C.3       1 <0>        -0.0765
     13 C13         7.8914    5.4655   -3.9768 C.3       1 <0>        -0.0774
     14 C14         5.9734    6.7271   -5.8338 C.3       1 <0>        -0.0953
     15 C15         6.4848    4.8992   -4.1636 C.3       1 <0>        -0.0906
     16 C16        -1.8342    1.4799   -8.7324 C.3       1 <0>        -0.0871
     17 C17        -5.0487    4.3542  -10.0327 C.3       1 <0>        -0.0716
     18 C18        -2.3033    1.7312  -10.1641 C.3       1 <0>         0.1333
     19 C19        -4.4074    2.9598  -10.1390 C.3       1 <0>         0.1246
     20 C20        -1.6152    2.8736   -8.1831 C.3       1 <0>         0.0606
     21 C21         5.9346    5.2200   -5.5576 C.3       1 <0>         0.1012
     22 C22        -4.0838    5.4758   -9.5814 C.3       1 <0>         0.1554
     23 C23        -4.8724    6.6393   -8.9701 C.3       1 <0>        -0.0356
     24 C24         1.5857    6.0302   -6.5865 C.3       1 <0>        -0.0795
     25 C25         1.6811    7.5259   -6.9095 C.3       1 <0>        -0.1203
     26 C26         2.1570    5.1335   -7.6933 C.3       1 <0>        -0.0920
     27 C27         1.0885    8.4192   -5.8200 C.3       1 <0>         0.1502
     28 C28         2.0196    3.6328   -7.4097 C.3       1 <0>         0.0224
     29 N1         -2.5211    3.6904   -8.9681 N.am      1 <0>        -0.3553
     30 N2         -2.9489    3.0553  -10.1488 N.3       1 <0>        -0.4320
     31 N3         -3.3108    5.9870  -10.7228 N.3       1 <0>        -0.9031
     32 N4          1.8018    8.2205   -4.5627 N.3       1 <0>        -0.9068
     33 N5          4.5631    4.7286   -5.6756 N.am      1 <0>        -0.5526
     34 N6          0.6426    3.2153   -7.3763 N.am      1 <0>        -0.5576
     35 O1         -2.7244    5.5164   -7.5701 O.2       1 <0>        -0.6710
     36 O2          2.2586    2.7495   -5.1557 O.2       1 <0>        -0.4901
     37 O3          5.0043    2.5518   -6.4389 O.2       1 <0>        -0.5902
     38 O4          0.0350    3.8958   -9.5198 O.2       1 <0>        -0.5833
     39 H1         -8.4745    8.5865  -12.4399 H         1 <0>         0.1320
     40 H2         -6.1769    9.5206  -12.3823 H         1 <0>         0.1324
     41 H3         -9.1071    6.7523  -10.8939 H         1 <0>         0.1328
     42 H4         -4.5135    8.6269  -10.7854 H         1 <0>         0.1324
     43 H5         -7.4512    5.8517   -9.2932 H         1 <0>         0.1434
     44 H6          8.9696    7.3226   -4.1856 H         1 <0>         0.0405
     45 H7          7.3557    7.4975   -3.4997 H         1 <0>         0.0421
     46 H8          7.3637    8.3780   -5.7872 H         1 <0>         0.0362
     47 H9          8.0448    6.8783   -6.4132 H         1 <0>         0.0439
     48 H10         8.5859    4.9444   -4.6472 H         1 <0>         0.0350
     49 H11         8.2322    5.2748   -2.9529 H         1 <0>         0.0428
     50 H12         5.2780    7.2495   -5.1636 H         1 <0>         0.0663
     51 H13         5.6301    6.9296   -6.8557 H         1 <0>         0.0466
     52 H14         6.5020    3.8136   -4.0086 H         1 <0>         0.0493
     53 H15         5.8202    5.3125   -3.3935 H         1 <0>         0.0520
     54 H16        -2.6369    0.9859   -8.1710 H         1 <0>         0.0915
     55 H17        -0.9427    0.8466   -8.6926 H         1 <0>         0.0601
     56 H18        -5.4989    4.6229  -10.9981 H         1 <0>         0.0688
     57 H19        -5.8853    4.2840   -9.3243 H         1 <0>         0.0630
     58 H20        -1.4316    1.7851  -10.8273 H         1 <0>         0.0807
     59 H21        -2.9449    0.9252  -10.5369 H         1 <0>         0.0380
     60 H22        -4.7542    2.3419   -9.2992 H         1 <0>         0.0484
     61 H23        -4.7632    2.4757  -11.0564 H         1 <0>         0.0697
     62 H24        -1.8289    2.9613   -7.1141 H         1 <0>         0.0843
     63 H25         6.5181    4.6883   -6.3182 H         1 <0>         0.0831
     64 H26        -4.1735    7.4215   -8.6684 H         1 <0>         0.0704
     65 H27        -5.3683    6.2928   -8.0614 H         1 <0>         0.0718
     66 H28         2.1358    5.8550   -5.6547 H         1 <0>         0.0606
     67 H29         0.5392    5.7688   -6.3906 H         1 <0>         0.0458
     68 H30         2.7419    7.7748   -7.0444 H         1 <0>         0.0375
     69 H31         1.1870    7.7255   -7.8687 H         1 <0>         0.0392
     70 H32         3.2164    5.3787   -7.8393 H         1 <0>         0.0606
     71 H33         1.6466    5.3535   -8.6384 H         1 <0>         0.0579
     72 H34         0.0275    8.1885   -5.6755 H         1 <0>         0.0571
     73 H35         1.1682    9.4739   -6.0992 H         1 <0>         0.0503
     74 H36         2.4714    3.0747   -8.2388 H         1 <0>         0.0993
     75 H37        -3.0417    5.3386  -11.4260 H         1 <0>         0.3700
     76 H38        -2.9200    6.8973  -10.6453 H         1 <0>         0.3660
     77 H39         1.4387    8.6562   -3.7421 H         1 <0>         0.3465
     78 H40         2.7216    7.8360   -4.5996 H         1 <0>         0.3446
     79 H41         3.8009    5.3544   -5.4327 H         1 <0>         0.3148
     80 H42         0.2924    2.7728   -6.5286 H         1 <0>         0.3220
@<TRIPOS>BOND
     1    1    2 ar
     2    1    3 ar
     3    2    4 ar
     4    3    5 ar
     5    4    6 ar
     6    5    6 ar
     7    6   23 1
     8    7   22 1
     9    7   29 am
    10    7   35 2
    11    8    9 1
    12    8   28 1
    13    8   36 2
    14    9   33 am
    15    9   37 2
    16   10   20 1
    17   10   34 am
    18   10   38 2
    19   11   12 1
    20   11   13 1
    21   12   14 1
    22   13   15 1
    23   14   21 1
    24   15   21 1
    25   16   18 1
    26   16   20 1
    27   17   19 1
    28   17   22 1
    29   18   30 1
    30   19   30 1
    31   20   29 1
    32   21   33 1
    33   22   23 1
    34   22   31 1
    35   24   25 1
    36   24   26 1
    37   25   27 1
    38   26   28 1
    39   27   32 1
    40   28   34 1
    41   29   30 1
    42    1   39 1
    43    2   40 1
    44    3   41 1
    45    4   42 1
    46    5   43 1
    47   11   44 1
    48   11   45 1
    49   12   46 1
    50   12   47 1
    51   13   48 1
    52   13   49 1
    53   14   50 1
    54   14   51 1
    55   15   52 1
    56   15   53 1
    57   16   54 1
    58   16   55 1
    59   17   56 1
    60   17   57 1
    61   18   58 1
    62   18   59 1
    63   19   60 1
    64   19   61 1
    65   20   62 1
    66   21   63 1
    67   23   64 1
    68   23   65 1
    69   24   66 1
    70   24   67 1
    71   25   68 1
    72   25   69 1
    73   26   70 1
    74   26   71 1
    75   27   72 1
    76   27   73 1
    77   28   74 1
    78   31   75 1
    79   31   76 1
    80   32   77 1
    81   32   78 1
    82   33   79 1
    83   34   80 1
@<TRIPOS>MOLECULE
1a46_ligand_290
   80    83     0     0     0
SMALL
USER_CHARGES

mmff94s_NoEstat = 87.59
@<TRIPOS>ATOM
      1 C1         11.2165    5.1344   -9.5699 C.ar      1 <0>        -0.1300
      2 C2         11.8039    4.7828   -8.3546 C.ar      1 <0>        -0.1323
      3 C3          9.9328    5.6797   -9.5922 C.ar      1 <0>        -0.1309
      4 C4         11.1077    4.9765   -7.1616 C.ar      1 <0>        -0.1275
      5 C5          9.2366    5.8734   -8.3991 C.ar      1 <0>        -0.1272
      6 C6          9.8285    5.5206   -7.1916 C.ar      1 <0>        -0.0843
      7 C7          7.4784    4.7027   -4.2310 C.2       1 <0>         0.6709
      8 C8          5.2358    2.3798    1.5634 C.2       1 <0>         0.4867
      9 C9          5.6522    1.1980    2.3894 C.2       1 <0>         0.5883
     10 C10         6.2126    3.1256   -1.7338 C.2       1 <0>         0.6572
     11 C11        10.1110    1.3481    4.5092 C.3       1 <0>        -0.0802
     12 C12         9.6462    0.6914    3.2120 C.3       1 <0>        -0.0765
     13 C13         8.9753    2.0862    5.2128 C.3       1 <0>        -0.0774
     14 C14         8.4366   -0.2156    3.4426 C.3       1 <0>        -0.0953
     15 C15         7.7675    1.1758    5.4389 C.3       1 <0>        -0.0906
     16 C16         4.3868    2.9365   -3.4414 C.3       1 <0>        -0.0871
     17 C17         7.2608    4.1580   -6.6868 C.3       1 <0>        -0.0716
     18 C18         5.0537    2.0131   -4.4592 C.3       1 <0>         0.1333
     19 C19         6.0339    3.3363   -6.2552 C.3       1 <0>         0.1246
     20 C20         5.5372    3.7637   -2.9085 C.3       1 <0>         0.0606
     21 C21         7.2794    0.5030    4.1490 C.3       1 <0>         0.1012
     22 C22         8.2469    4.4948   -5.5436 C.3       1 <0>         0.1554
     23 C23         9.0796    5.7289   -5.9083 C.3       1 <0>        -0.0356
     24 C24         8.0800    4.9598    0.7851 C.3       1 <0>        -0.0795
     25 C25         8.7880    6.0338    1.6192 C.3       1 <0>        -0.1203
     26 C26         6.9719    4.2276    1.5544 C.3       1 <0>        -0.0920
     27 C27         9.9095    6.7454    0.8629 C.3       1 <0>         0.1502
     28 C28         6.2906    3.1130    0.7514 C.3       1 <0>         0.0224
     29 N1          6.4904    3.7576   -4.0019 N.am      1 <0>        -0.3553
     30 N2          6.2438    2.7368   -4.9387 N.3       1 <0>        -0.4320
     31 N3          9.1632    3.3713   -5.2994 N.3       1 <0>        -0.9031
     32 N4         10.5470    7.7366    1.7233 N.3       1 <0>        -0.9068
     33 N5          6.6784    1.4957    3.2556 N.am      1 <0>        -0.5526
     34 N6          5.7762    3.5917   -0.5046 N.am      1 <0>        -0.5576
     35 O1          7.7368    5.6223   -3.4546 O.2       1 <0>        -0.6710
     36 O2          4.0675    2.7325    1.6631 O.2       1 <0>        -0.4901
     37 O3          5.0785    0.1378    2.2009 O.2       1 <0>        -0.5902
     38 O4          7.0689    2.2691   -1.9210 O.2       1 <0>        -0.5833
     39 H1         11.7586    4.9835  -10.4989 H         1 <0>         0.1320
     40 H2         12.8034    4.3582   -8.3374 H         1 <0>         0.1324
     41 H3          9.4755    5.9533  -10.5385 H         1 <0>         0.1328
     42 H4         11.5733    4.6996   -6.2195 H         1 <0>         0.1324
     43 H5          8.2369    6.2989   -8.4262 H         1 <0>         0.1434
     44 H6         10.5143    0.5795    5.1802 H         1 <0>         0.0405
     45 H7         10.9289    2.0459    4.2969 H         1 <0>         0.0421
     46 H8          9.3936    1.4674    2.4794 H         1 <0>         0.0362
     47 H9         10.4670    0.1056    2.7825 H         1 <0>         0.0439
     48 H10         9.3291    2.4721    6.1757 H         1 <0>         0.0350
     49 H11         8.6777    2.9552    4.6136 H         1 <0>         0.0428
     50 H12         8.0993   -0.6177    2.4795 H         1 <0>         0.0663
     51 H13         8.7485   -1.0728    4.0530 H         1 <0>         0.0466
     52 H14         8.0408    0.3987    6.1641 H         1 <0>         0.0493
     53 H15         6.9561    1.7598    5.8899 H         1 <0>         0.0520
     54 H16         3.6738    3.5897   -3.9595 H         1 <0>         0.0915
     55 H17         3.8488    2.3812   -2.6670 H         1 <0>         0.0601
     56 H18         7.7933    3.6252   -7.4865 H         1 <0>         0.0688
     57 H19         6.8963    5.0889   -7.1420 H         1 <0>         0.0630
     58 H20         5.3910    1.1000   -3.9542 H         1 <0>         0.0807
     59 H21         4.3651    1.7081   -5.2548 H         1 <0>         0.0380
     60 H22         5.1498    3.9888   -6.2523 H         1 <0>         0.0484
     61 H23         5.8493    2.5563   -7.0035 H         1 <0>         0.0697
     62 H24         5.2534    4.7844   -2.6367 H         1 <0>         0.0843
     63 H25         6.4839   -0.2127    4.3813 H         1 <0>         0.0831
     64 H26         9.7736    5.9418   -5.0932 H         1 <0>         0.0704
     65 H27         8.4167    6.5923   -5.9906 H         1 <0>         0.0718
     66 H28         7.6494    5.4516   -0.0948 H         1 <0>         0.0606
     67 H29         8.8216    4.2418    0.4157 H         1 <0>         0.0458
     68 H30         8.0356    6.7709    1.9287 H         1 <0>         0.0375
     69 H31         9.1825    5.5824    2.5383 H         1 <0>         0.0392
     70 H32         6.2171    4.9575    1.8728 H         1 <0>         0.0606
     71 H33         7.3929    3.7874    2.4660 H         1 <0>         0.0579
     72 H34         9.5108    7.2416   -0.0285 H         1 <0>         0.0571
     73 H35        10.6706    6.0303    0.5375 H         1 <0>         0.0503
     74 H36         7.0421    2.3587    0.4881 H         1 <0>         0.0993
     75 H37         8.8040    2.4509   -5.4050 H         1 <0>         0.3700
     76 H38        10.0264    3.5689   -4.8487 H         1 <0>         0.3660
     77 H39        11.2163    8.3531    1.3147 H         1 <0>         0.3465
     78 H40        10.4498    7.6340    2.7108 H         1 <0>         0.3446
     79 H41         7.0352    2.4464    3.2766 H         1 <0>         0.3148
     80 H42         5.0545    4.3100   -0.4888 H         1 <0>         0.3220
@<TRIPOS>BOND
     1    1    2 ar
     2    1    3 ar
     3    2    4 ar
     4    3    5 ar
     5    4    6 ar
     6    5    6 ar
     7    6   23 1
     8    7   22 1
     9    7   29 am
    10    7   35 2
    11    8    9 1
    12    8   28 1
    13    8   36 2
    14    9   33 am
    15    9   37 2
    16   10   20 1
    17   10   34 am
    18   10   38 2
    19   11   12 1
    20   11   13 1
    21   12   14 1
    22   13   15 1
    23   14   21 1
    24   15   21 1
    25   16   18 1
    26   16   20 1
    27   17   19 1
    28   17   22 1
    29   18   30 1
    30   19   30 1
    31   20   29 1
    32   21   33 1
    33   22   23 1
    34   22   31 1
    35   24   25 1
    36   24   26 1
    37   25   27 1
    38   26   28 1
    39   27   32 1
    40   28   34 1
    41   29   30 1
    42    1   39 1
    43    2   40 1
    44    3   41 1
    45    4   42 1
    46    5   43 1
    47   11   44 1
    48   11   45 1
    49   12   46 1
    50   12   47 1
    51   13   48 1
    52   13   49 1
    53   14   50 1
    54   14   51 1
    55   15   52 1
    56   15   53 1
    57   16   54 1
    58   16   55 1
    59   17   56 1
    60   17   57 1
    61   18   58 1
    62   18   59 1
    63   19   60 1
    64   19   61 1
    65   20   62 1
    66   21   63 1
    67   23   64 1
    68   23   65 1
    69   24   66 1
    70   24   67 1
    71   25   68 1
    72   25   69 1
    73   26   70 1
    74   26   71 1
    75   27   72 1
    76   27   73 1
    77   28   74 1
    78   31   75 1
    79   31   76 1
    80   32   77 1
    81   32   78 1
    82   33   79 1
    83   34   80 1
@<TRIPOS>MOLECULE
1a46_ligand_291
   80    83     0     0     0
SMALL
USER_CHARGES

mmff94s_NoEstat = 87.63
@<TRIPOS>ATOM
      1 C1         -7.1732    5.1663  -14.6915 C.ar      1 <0>        -0.1300
      2 C2         -5.9354    5.8086  -14.7170 C.ar      1 <0>        -0.1323
      3 C3         -7.6444    4.6069  -13.5037 C.ar      1 <0>        -0.1309
      4 C4         -5.1685    5.8915  -13.5548 C.ar      1 <0>        -0.1275
      5 C5         -6.8775    4.6898  -12.3415 C.ar      1 <0>        -0.1272
      6 C6         -5.6446    5.3316  -12.3746 C.ar      1 <0>        -0.0843
      7 C7         -3.0329    4.3040   -9.7137 C.2       1 <0>         0.6709
      8 C8          2.7796    3.2097   -6.1637 C.2       1 <0>         0.4867
      9 C9          2.0233    2.5606   -5.0416 C.2       1 <0>         0.5883
     10 C10        -0.2306    3.3845   -8.4382 C.2       1 <0>         0.6572
     11 C11         1.9645   -1.8404   -1.9043 C.3       1 <0>        -0.0802
     12 C12         1.2252   -1.9940   -3.2304 C.3       1 <0>        -0.0765
     13 C13         1.9764   -0.3897   -1.4308 C.3       1 <0>        -0.0774
     14 C14         1.7870   -1.0593   -4.3004 C.3       1 <0>        -0.0953
     15 C15         2.5397    0.5467   -2.4984 C.3       1 <0>        -0.0906
     16 C16        -1.6648    1.3674   -8.0386 C.3       1 <0>        -0.0871
     17 C17        -4.6909    2.9009  -11.0011 C.3       1 <0>        -0.0716
     18 C18        -1.8612    0.8785   -9.4723 C.3       1 <0>         0.1333
     19 C19        -3.9819    1.7050  -10.3424 C.3       1 <0>         0.1246
     20 C20        -1.6152    2.8736   -8.1831 C.3       1 <0>         0.0606
     21 C21         1.7865    0.3978   -3.8249 C.3       1 <0>         0.1012
     22 C22        -3.8794    4.2177  -10.9915 C.3       1 <0>         0.1554
     23 C23        -4.8198    5.4208  -11.1245 C.3       1 <0>        -0.0356
     24 C24         3.6080    5.6033   -7.8654 C.3       1 <0>        -0.0795
     25 C25         3.7321    7.1143   -8.0937 C.3       1 <0>        -0.1203
     26 C26         2.1570    5.1335   -7.6933 C.3       1 <0>        -0.0920
     27 C27         5.1782    7.5875   -8.2387 C.3       1 <0>         0.1502
     28 C28         2.0196    3.6328   -7.4097 C.3       1 <0>         0.0224
     29 N1         -2.3880    3.1216   -9.3852 N.am      1 <0>        -0.3553
     30 N2         -2.5540    1.9705  -10.1777 N.3       1 <0>        -0.4320
     31 N3         -2.9247    4.2482  -12.1092 N.3       1 <0>        -0.9031
     32 N4          5.2178    9.0330   -8.4337 N.3       1 <0>        -0.9068
     33 N5          2.3972    1.2522   -4.8415 N.am      1 <0>        -0.5526
     34 N6          0.6426    3.2153   -7.3763 N.am      1 <0>        -0.5576
     35 O1         -2.9337    5.3408   -9.0578 O.2       1 <0>        -0.6710
     36 O2          3.9949    3.2835   -6.0334 O.2       1 <0>        -0.4901
     37 O3          1.1778    3.2234   -4.4630 O.2       1 <0>        -0.5902
     38 O4          0.0350    3.8958   -9.5198 O.2       1 <0>        -0.5833
     39 H1         -7.7703    5.1016  -15.5965 H         1 <0>         0.1320
     40 H2         -5.5686    6.2441  -15.6419 H         1 <0>         0.1324
     41 H3         -8.6082    4.1066  -13.4840 H         1 <0>         0.1328
     42 H4         -4.2053    6.3939  -13.5842 H         1 <0>         0.1324
     43 H5         -7.2527    4.2510  -11.4207 H         1 <0>         0.1434
     44 H6          1.4927   -2.4726   -1.1437 H         1 <0>         0.0405
     45 H7          2.9964   -2.1943   -2.0196 H         1 <0>         0.0421
     46 H8          1.2964   -3.0321   -3.5740 H         1 <0>         0.0362
     47 H9          0.1599   -1.7786   -3.0820 H         1 <0>         0.0439
     48 H10         0.9554   -0.0796   -1.1762 H         1 <0>         0.0350
     49 H11         2.5731   -0.3059   -0.5155 H         1 <0>         0.0428
     50 H12         2.8086   -1.3703   -4.5560 H         1 <0>         0.0663
     51 H13         1.1952   -1.1537   -5.2190 H         1 <0>         0.0466
     52 H14         2.4782    1.5839   -2.1473 H         1 <0>         0.0493
     53 H15         3.6062    0.3314   -2.6462 H         1 <0>         0.0520
     54 H16        -2.5383    1.0847   -7.4380 H         1 <0>         0.0915
     55 H17        -0.7712    0.9407   -7.5731 H         1 <0>         0.0601
     56 H18        -4.9589    2.6417  -12.0345 H         1 <0>         0.0688
     57 H19        -5.6440    3.0543  -10.4769 H         1 <0>         0.0630
     58 H20        -0.8817    0.7357   -9.9443 H         1 <0>         0.0807
     59 H21        -2.3843   -0.0833   -9.5137 H         1 <0>         0.0380
     60 H22        -4.4563    1.4977   -9.3732 H         1 <0>         0.0484
     61 H23        -4.1342    0.8159  -10.9661 H         1 <0>         0.0697
     62 H24        -2.0334    3.4095   -7.3263 H         1 <0>         0.0843
     63 H25         0.7550    0.7494   -3.7073 H         1 <0>         0.0831
     64 H26        -4.2259    6.3366  -11.1252 H         1 <0>         0.0704
     65 H27        -5.4653    5.4651  -10.2453 H         1 <0>         0.0718
     66 H28         4.0550    5.0981   -8.7294 H         1 <0>         0.0606
     67 H29         4.2035    5.3200   -6.9896 H         1 <0>         0.0458
     68 H30         3.1762    7.3642   -9.0068 H         1 <0>         0.0375
     69 H31         3.2423    7.6502   -7.2709 H         1 <0>         0.0392
     70 H32         1.5916    5.3838   -8.5996 H         1 <0>         0.0606
     71 H33         1.6928    5.6841   -6.8667 H         1 <0>         0.0579
     72 H34         5.6557    7.0931   -9.0916 H         1 <0>         0.0571
     73 H35         5.7562    7.3441   -7.3424 H         1 <0>         0.0503
     74 H36         2.4714    3.0747   -8.2388 H         1 <0>         0.0993
     75 H37        -2.4982    3.3913  -12.3759 H         1 <0>         0.3700
     76 H38        -2.5954    5.1358  -12.4112 H         1 <0>         0.3660
     77 H39         6.0938    9.4532   -8.6597 H         1 <0>         0.3465
     78 H40         4.4297    9.5689   -8.1390 H         1 <0>         0.3446
     79 H41         3.1304    0.8623   -5.4263 H         1 <0>         0.3148
     80 H42         0.2924    2.7728   -6.5286 H         1 <0>         0.3220
@<TRIPOS>BOND
     1    1    2 ar
     2    1    3 ar
     3    2    4 ar
     4    3    5 ar
     5    4    6 ar
     6    5    6 ar
     7    6   23 1
     8    7   22 1
     9    7   29 am
    10    7   35 2
    11    8    9 1
    12    8   28 1
    13    8   36 2
    14    9   33 am
    15    9   37 2
    16   10   20 1
    17   10   34 am
    18   10   38 2
    19   11   12 1
    20   11   13 1
    21   12   14 1
    22   13   15 1
    23   14   21 1
    24   15   21 1
    25   16   18 1
    26   16   20 1
    27   17   19 1
    28   17   22 1
    29   18   30 1
    30   19   30 1
    31   20   29 1
    32   21   33 1
    33   22   23 1
    34   22   31 1
    35   24   25 1
    36   24   26 1
    37   25   27 1
    38   26   28 1
    39   27   32 1
    40   28   34 1
    41   29   30 1
    42    1   39 1
    43    2   40 1
    44    3   41 1
    45    4   42 1
    46    5   43 1
    47   11   44 1
    48   11   45 1
    49   12   46 1
    50   12   47 1
    51   13   48 1
    52   13   49 1
    53   14   50 1
    54   14   51 1
    55   15   52 1
    56   15   53 1
    57   16   54 1
    58   16   55 1
    59   17   56 1
    60   17   57 1
    61   18   58 1
    62   18   59 1
    63   19   60 1
    64   19   61 1
    65   20   62 1
    66   21   63 1
    67   23   64 1
    68   23   65 1
    69   24   66 1
    70   24   67 1
    71   25   68 1
    72   25   69 1
    73   26   70 1
    74   26   71 1
    75   27   72 1
    76   27   73 1
    77   28   74 1
    78   31   75 1
    79   31   76 1
    80   32   77 1
    81   32   78 1
    82   33   79 1
    83   34   80 1
@<TRIPOS>MOLECULE
1a46_ligand_292
   80    83     0     0     0
SMALL
USER_CHARGES

mmff94s_NoEstat = 87.69
@<TRIPOS>ATOM
      1 C1         -2.6445   10.2618   -2.2387 C.ar      1 <0>        -0.1300
      2 C2         -2.3767    9.6884   -0.9957 C.ar      1 <0>        -0.1323
      3 C3         -2.1497    9.6701   -3.4009 C.ar      1 <0>        -0.1309
      4 C4         -1.6141    8.5233   -0.9148 C.ar      1 <0>        -0.1275
      5 C5         -1.3871    8.5049   -3.3201 C.ar      1 <0>        -0.1272
      6 C6         -1.1243    7.9391   -2.0776 C.ar      1 <0>        -0.0843
      7 C7          2.0326    5.7272   -1.7627 C.2       1 <0>         0.6709
      8 C8          5.2358    2.3798    1.5634 C.2       1 <0>         0.4867
      9 C9          4.0737    1.7586    0.8450 C.2       1 <0>         0.5883
     10 C10         4.7954    4.5647   -0.6048 C.2       1 <0>         0.6572
     11 C11         4.0644   -3.1378    0.1954 C.3       1 <0>        -0.0802
     12 C12         4.9349   -2.3079   -0.7445 C.3       1 <0>        -0.0765
     13 C13         3.3449   -2.2675    1.2224 C.3       1 <0>        -0.0774
     14 C14         4.1346   -1.1879   -1.4107 C.3       1 <0>        -0.0953
     15 C15         2.5480   -1.1477    0.5515 C.3       1 <0>        -0.0906
     16 C16         5.5346    5.5870   -2.7713 C.3       1 <0>        -0.0871
     17 C17         1.6625    7.8714   -3.0437 C.3       1 <0>        -0.0716
     18 C18         5.3303    7.0689   -2.4625 C.3       1 <0>         0.1333
     19 C19         3.1731    7.8019   -3.3266 C.3       1 <0>         0.1246
     20 C20         4.4137    4.9104   -2.0113 C.3       1 <0>         0.0606
     21 C21         3.4011   -0.2972   -0.3991 C.3       1 <0>         0.1012
     22 C22         1.1885    7.0064   -1.8522 C.3       1 <0>         0.1554
     23 C23        -0.3040    6.6858   -1.9906 C.3       1 <0>        -0.0356
     24 C24         7.6485    3.7409    2.8432 C.3       1 <0>        -0.0795
     25 C25         8.2774    4.8743    3.6620 C.3       1 <0>        -0.1203
     26 C26         6.9719    4.2276    1.5544 C.3       1 <0>        -0.0920
     27 C27         8.9284    4.3945    4.9589 C.3       1 <0>         0.1502
     28 C28         6.2906    3.1130    0.7514 C.3       1 <0>         0.0224
     29 N1          3.3921    5.9372   -1.9343 N.am      1 <0>        -0.3553
     30 N2          3.8913    7.2279   -2.1903 N.3       1 <0>        -0.4320
     31 N3          1.3958    7.7147   -0.5806 N.3       1 <0>        -0.9031
     32 N4          9.4866    5.5266    5.6910 N.3       1 <0>        -0.9068
     33 N5          4.3625    0.5037    0.3619 N.am      1 <0>        -0.5526
     34 N6          5.7762    3.5917   -0.5046 N.am      1 <0>        -0.5576
     35 O1          1.5345    4.6231   -1.5437 O.2       1 <0>        -0.6710
     36 O2          5.3022    2.1819    2.7699 O.2       1 <0>        -0.4901
     37 O3          3.0463    2.4099    0.7491 O.2       1 <0>        -0.5902
     38 O4          4.2448    5.1367    0.3286 O.2       1 <0>        -0.5833
     39 H1         -3.2382   11.1691   -2.3016 H         1 <0>         0.1320
     40 H2         -2.7620   10.1493   -0.0908 H         1 <0>         0.1324
     41 H3         -2.3582   10.1168   -4.3687 H         1 <0>         0.1328
     42 H4         -1.4106    8.0836    0.0580 H         1 <0>         0.1324
     43 H5         -1.0058    8.0510   -4.2309 H         1 <0>         0.1434
     44 H6          3.3227   -3.6924   -0.3927 H         1 <0>         0.0405
     45 H7          4.6827   -3.8816    0.7106 H         1 <0>         0.0421
     46 H8          5.7747   -1.8806   -0.1833 H         1 <0>         0.0362
     47 H9          5.3667   -2.9577   -1.5143 H         1 <0>         0.0439
     48 H10         2.6703   -2.8890    1.8223 H         1 <0>         0.0350
     49 H11         4.0784   -1.8371    1.9148 H         1 <0>         0.0428
     50 H12         4.8088   -0.5817   -2.0279 H         1 <0>         0.0663
     51 H13         3.3981   -1.6353   -2.0902 H         1 <0>         0.0466
     52 H14         1.7203   -1.5929   -0.0152 H         1 <0>         0.0493
     53 H15         2.0985   -0.5129    1.3247 H         1 <0>         0.0520
     54 H16         5.4011    5.4209   -3.8475 H         1 <0>         0.0915
     55 H17         6.5319    5.2374   -2.4876 H         1 <0>         0.0601
     56 H18         1.3705    8.9173   -2.8778 H         1 <0>         0.0688
     57 H19         1.1370    7.5576   -3.9559 H         1 <0>         0.0630
     58 H20         5.8802    7.3284   -1.5498 H         1 <0>         0.0807
     59 H21         5.7080    7.7145   -3.2631 H         1 <0>         0.0380
     60 H22         3.3395    7.2079   -4.2360 H         1 <0>         0.0484
     61 H23         3.5406    8.8134   -3.5374 H         1 <0>         0.0697
     62 H24         4.0335    4.0099   -2.5019 H         1 <0>         0.0843
     63 H25         2.7649    0.4200   -0.9282 H         1 <0>         0.0831
     64 H26        -0.6181    6.0842   -1.1357 H         1 <0>         0.0704
     65 H27        -0.4536    6.0709   -2.8800 H         1 <0>         0.0718
     66 H28         8.4445    3.0306    2.5915 H         1 <0>         0.0606
     67 H29         6.9275    3.2007    3.4679 H         1 <0>         0.0458
     68 H30         9.0354    5.3625    3.0356 H         1 <0>         0.0375
     69 H31         7.5157    5.6329    3.8824 H         1 <0>         0.0392
     70 H32         7.7210    4.7221    0.9235 H         1 <0>         0.0606
     71 H33         6.2174    4.9831    1.8035 H         1 <0>         0.0579
     72 H34         9.7251    3.6753    4.7403 H         1 <0>         0.0571
     73 H35         8.1937    3.8977    5.5994 H         1 <0>         0.0503
     74 H36         7.0421    2.3587    0.4881 H         1 <0>         0.0993
     75 H37         2.1998    8.2929   -0.4996 H         1 <0>         0.3700
     76 H38         0.8492    7.4324    0.1998 H         1 <0>         0.3660
     77 H39        10.0430    5.3371    6.4969 H         1 <0>         0.3465
     78 H40         9.1331    6.4373    5.4892 H         1 <0>         0.3446
     79 H41         5.2837    0.1150    0.5408 H         1 <0>         0.3148
     80 H42         6.1527    3.1949   -1.3636 H         1 <0>         0.3220
@<TRIPOS>BOND
     1    1    2 ar
     2    1    3 ar
     3    2    4 ar
     4    3    5 ar
     5    4    6 ar
     6    5    6 ar
     7    6   23 1
     8    7   22 1
     9    7   29 am
    10    7   35 2
    11    8    9 1
    12    8   28 1
    13    8   36 2
    14    9   33 am
    15    9   37 2
    16   10   20 1
    17   10   34 am
    18   10   38 2
    19   11   12 1
    20   11   13 1
    21   12   14 1
    22   13   15 1
    23   14   21 1
    24   15   21 1
    25   16   18 1
    26   16   20 1
    27   17   19 1
    28   17   22 1
    29   18   30 1
    30   19   30 1
    31   20   29 1
    32   21   33 1
    33   22   23 1
    34   22   31 1
    35   24   25 1
    36   24   26 1
    37   25   27 1
    38   26   28 1
    39   27   32 1
    40   28   34 1
    41   29   30 1
    42    1   39 1
    43    2   40 1
    44    3   41 1
    45    4   42 1
    46    5   43 1
    47   11   44 1
    48   11   45 1
    49   12   46 1
    50   12   47 1
    51   13   48 1
    52   13   49 1
    53   14   50 1
    54   14   51 1
    55   15   52 1
    56   15   53 1
    57   16   54 1
    58   16   55 1
    59   17   56 1
    60   17   57 1
    61   18   58 1
    62   18   59 1
    63   19   60 1
    64   19   61 1
    65   20   62 1
    66   21   63 1
    67   23   64 1
    68   23   65 1
    69   24   66 1
    70   24   67 1
    71   25   68 1
    72   25   69 1
    73   26   70 1
    74   26   71 1
    75   27   72 1
    76   27   73 1
    77   28   74 1
    78   31   75 1
    79   31   76 1
    80   32   77 1
    81   32   78 1
    82   33   79 1
    83   34   80 1
@<TRIPOS>MOLECULE
1a46_ligand_293
   80    83     0     0     0
SMALL
USER_CHARGES

mmff94s_NoEstat = 87.70
@<TRIPOS>ATOM
      1 C1         11.0121    9.2104   -7.9325 C.ar      1 <0>        -0.1300
      2 C2         11.5385    8.8832   -6.6829 C.ar      1 <0>        -0.1323
      3 C3          9.6345    9.1559   -8.1449 C.ar      1 <0>        -0.1309
      4 C4         10.6874    8.5015   -5.6458 C.ar      1 <0>        -0.1275
      5 C5          8.7834    8.7742   -7.1078 C.ar      1 <0>        -0.1272
      6 C6          9.3154    8.4495   -5.8650 C.ar      1 <0>        -0.0843
      7 C7          7.2411    6.0968   -3.6024 C.2       1 <0>         0.6709
      8 C8          5.2358    2.3798    1.5634 C.2       1 <0>         0.4867
      9 C9          4.9672    2.8271    2.9706 C.2       1 <0>         0.5883
     10 C10         6.5256    3.6321   -1.6689 C.2       1 <0>         0.6572
     11 C11         3.8398   -0.6458    6.2969 C.3       1 <0>        -0.0802
     12 C12         2.9425    0.2829    5.4830 C.3       1 <0>        -0.0765
     13 C13         5.3167   -0.4410    5.9708 C.3       1 <0>        -0.0774
     14 C14         3.3601    1.7460    5.6368 C.3       1 <0>        -0.0953
     15 C15         5.7288    1.0239    6.1238 C.3       1 <0>        -0.0906
     16 C16         5.2113    3.0694   -3.7284 C.3       1 <0>        -0.0871
     17 C17         7.6012    6.0599   -6.1012 C.3       1 <0>        -0.0716
     18 C18         6.3446    2.7580   -4.7039 C.3       1 <0>         0.1333
     19 C19         6.8355    4.7264   -6.0536 C.3       1 <0>         0.1246
     20 C20         5.7868    4.1659   -2.8575 C.3       1 <0>         0.0606
     21 C21         4.8421    1.9794    5.3142 C.3       1 <0>         0.1012
     22 C22         8.1773    6.5224   -4.7422 C.3       1 <0>         0.1554
     23 C23         8.4000    8.0389   -4.7494 C.3       1 <0>        -0.0356
     24 C24         8.0800    4.9598    0.7851 C.3       1 <0>        -0.0795
     25 C25         8.7880    6.0338    1.6192 C.3       1 <0>        -0.1203
     26 C26         6.9719    4.2276    1.5544 C.3       1 <0>        -0.0920
     27 C27         9.9095    6.7454    0.8629 C.3       1 <0>         0.1502
     28 C28         6.2906    3.1130    0.7514 C.3       1 <0>         0.0224
     29 N1          6.7674    4.7991   -3.7183 N.am      1 <0>        -0.3553
     30 N2          7.1280    4.0001   -4.8193 N.3       1 <0>        -0.4320
     31 N3          9.4643    5.8648   -4.4722 N.3       1 <0>        -0.9031
     32 N4         10.5470    7.7366    1.7233 N.3       1 <0>        -0.9068
     33 N5          5.0827    1.8021    3.8805 N.am      1 <0>        -0.5526
     34 N6          5.7762    3.5917   -0.5046 N.am      1 <0>        -0.5576
     35 O1          6.9567    6.8465   -2.6685 O.2       1 <0>        -0.6710
     36 O2          4.5176    1.4899    1.1258 O.2       1 <0>        -0.4901
     37 O3          4.6665    3.9957    3.1517 O.2       1 <0>        -0.5902
     38 O4          7.6924    3.2783   -1.7917 O.2       1 <0>        -0.5833
     39 H1         11.6747    9.5075   -8.7400 H         1 <0>         0.1320
     40 H2         12.6111    8.9257   -6.5176 H         1 <0>         0.1324
     41 H3          9.2248    9.4105   -9.1180 H         1 <0>         0.1328
     42 H4         11.1066    8.2484   -4.6756 H         1 <0>         0.1324
     43 H5          7.7115    8.7346   -7.2826 H         1 <0>         0.1434
     44 H6          3.6760   -0.4626    7.3661 H         1 <0>         0.0405
     45 H7          3.5610   -1.6884    6.1065 H         1 <0>         0.0421
     46 H8          2.9819   -0.0049    4.4255 H         1 <0>         0.0362
     47 H9          1.9018    0.1629    5.8051 H         1 <0>         0.0439
     48 H10         5.9288   -1.0650    6.6319 H         1 <0>         0.0350
     49 H11         5.5146   -0.7767    4.9457 H         1 <0>         0.0428
     50 H12         2.7306    2.3699    4.9908 H         1 <0>         0.0663
     51 H13         3.1670    2.0622    6.6698 H         1 <0>         0.0466
     52 H14         5.6719    1.2986    7.1848 H         1 <0>         0.0493
     53 H15         6.7773    1.1361    5.8224 H         1 <0>         0.0520
     54 H16         4.3507    3.4578   -4.2870 H         1 <0>         0.0915
     55 H17         4.8908    2.1856   -3.1683 H         1 <0>         0.0601
     56 H18         8.4120    5.9885   -6.8390 H         1 <0>         0.0688
     57 H19         6.9149    6.8257   -6.4876 H         1 <0>         0.0630
     58 H20         6.9926    1.9855   -4.2725 H         1 <0>         0.0807
     59 H21         5.9735    2.3729   -5.6602 H         1 <0>         0.0380
     60 H22         5.7592    4.9288   -6.1435 H         1 <0>         0.0484
     61 H23         7.1185    4.1245   -6.9255 H         1 <0>         0.0697
     62 H24         5.0406    4.8864   -2.5107 H         1 <0>         0.0843
     63 H25         5.1122    3.0167    5.5382 H         1 <0>         0.0831
     64 H26         8.8151    8.3408   -3.7861 H         1 <0>         0.0704
     65 H27         7.4343    8.5386   -4.8464 H         1 <0>         0.0718
     66 H28         7.6494    5.4516   -0.0948 H         1 <0>         0.0606
     67 H29         8.8216    4.2418    0.4157 H         1 <0>         0.0458
     68 H30         8.0356    6.7709    1.9287 H         1 <0>         0.0375
     69 H31         9.1825    5.5824    2.5383 H         1 <0>         0.0392
     70 H32         6.2171    4.9575    1.8728 H         1 <0>         0.0606
     71 H33         7.3929    3.7874    2.4660 H         1 <0>         0.0579
     72 H34         9.5108    7.2416   -0.0285 H         1 <0>         0.0571
     73 H35        10.6706    6.0303    0.5375 H         1 <0>         0.0503
     74 H36         7.0421    2.3587    0.4881 H         1 <0>         0.0993
     75 H37         9.5764    4.9261   -4.7778 H         1 <0>         0.3700
     76 H38        10.0811    6.3037   -3.8286 H         1 <0>         0.3660
     77 H39        11.2163    8.3531    1.3147 H         1 <0>         0.3465
     78 H40        10.4498    7.6340    2.7108 H         1 <0>         0.3446
     79 H41         5.3467    0.8812    3.5430 H         1 <0>         0.3148
     80 H42         4.8120    3.9176   -0.5391 H         1 <0>         0.3220
@<TRIPOS>BOND
     1    1    2 ar
     2    1    3 ar
     3    2    4 ar
     4    3    5 ar
     5    4    6 ar
     6    5    6 ar
     7    6   23 1
     8    7   22 1
     9    7   29 am
    10    7   35 2
    11    8    9 1
    12    8   28 1
    13    8   36 2
    14    9   33 am
    15    9   37 2
    16   10   20 1
    17   10   34 am
    18   10   38 2
    19   11   12 1
    20   11   13 1
    21   12   14 1
    22   13   15 1
    23   14   21 1
    24   15   21 1
    25   16   18 1
    26   16   20 1
    27   17   19 1
    28   17   22 1
    29   18   30 1
    30   19   30 1
    31   20   29 1
    32   21   33 1
    33   22   23 1
    34   22   31 1
    35   24   25 1
    36   24   26 1
    37   25   27 1
    38   26   28 1
    39   27   32 1
    40   28   34 1
    41   29   30 1
    42    1   39 1
    43    2   40 1
    44    3   41 1
    45    4   42 1
    46    5   43 1
    47   11   44 1
    48   11   45 1
    49   12   46 1
    50   12   47 1
    51   13   48 1
    52   13   49 1
    53   14   50 1
    54   14   51 1
    55   15   52 1
    56   15   53 1
    57   16   54 1
    58   16   55 1
    59   17   56 1
    60   17   57 1
    61   18   58 1
    62   18   59 1
    63   19   60 1
    64   19   61 1
    65   20   62 1
    66   21   63 1
    67   23   64 1
    68   23   65 1
    69   24   66 1
    70   24   67 1
    71   25   68 1
    72   25   69 1
    73   26   70 1
    74   26   71 1
    75   27   72 1
    76   27   73 1
    77   28   74 1
    78   31   75 1
    79   31   76 1
    80   32   77 1
    81   32   78 1
    82   33   79 1
    83   34   80 1
@<TRIPOS>MOLECULE
1a46_ligand_294
   80    83     0     0     0
SMALL
USER_CHARGES

mmff94s_NoEstat = 87.71
@<TRIPOS>ATOM
      1 C1         -6.7822    9.5030   -7.7682 C.ar      1 <0>        -0.1300
      2 C2         -5.4163    9.7853   -7.7613 C.ar      1 <0>        -0.1323
      3 C3         -7.2347    8.2371   -7.3962 C.ar      1 <0>        -0.1309
      4 C4         -4.5027    8.8017   -7.3825 C.ar      1 <0>        -0.1275
      5 C5         -6.3211    7.2534   -7.0174 C.ar      1 <0>        -0.1272
      6 C6         -4.9611    7.5422   -7.0130 C.ar      1 <0>        -0.0843
      7 C7         -2.5118    4.5743   -7.4005 C.2       1 <0>         0.6709
      8 C8          2.7796    3.2097   -6.1637 C.2       1 <0>         0.4867
      9 C9          2.2829    2.0299   -5.3801 C.2       1 <0>         0.5883
     10 C10        -0.0591    2.8141   -8.5012 C.2       1 <0>         0.6572
     11 C11        -1.2704    0.6207   -1.5588 C.3       1 <0>        -0.0802
     12 C12         0.0744    1.1096   -1.0285 C.3       1 <0>        -0.0765
     13 C13        -1.1365   -0.0014   -2.9459 C.3       1 <0>        -0.0774
     14 C14         0.7531    2.0650   -2.0087 C.3       1 <0>        -0.0953
     15 C15        -0.4598    0.9531   -3.9283 C.3       1 <0>        -0.0906
     16 C16        -2.0373    1.4899   -9.2879 C.3       1 <0>        -0.0871
     17 C17        -4.7351    5.0124   -8.5142 C.3       1 <0>        -0.0716
     18 C18        -2.6100    2.4429  -10.3352 C.3       1 <0>         0.1333
     19 C19        -4.4053    3.7655   -9.3528 C.3       1 <0>         0.1246
     20 C20        -1.4789    2.4202   -8.2321 C.3       1 <0>         0.0606
     21 C21         0.8958    1.4320   -3.3972 C.3       1 <0>         0.1012
     22 C22        -3.5177    5.6586   -7.8120 C.3       1 <0>         0.1554
     23 C23        -3.9784    6.4841   -6.6055 C.3       1 <0>        -0.0356
     24 C24         3.6080    5.6033   -7.8654 C.3       1 <0>        -0.0795
     25 C25         3.7321    7.1143   -8.0937 C.3       1 <0>        -0.1203
     26 C26         2.1570    5.1335   -7.6933 C.3       1 <0>        -0.0920
     27 C27         5.1782    7.5875   -8.2387 C.3       1 <0>         0.1502
     28 C28         2.0196    3.6328   -7.4097 C.3       1 <0>         0.0224
     29 N1         -2.2867    3.6162   -8.3768 N.am      1 <0>        -0.3553
     30 N2         -2.9688    3.6719   -9.6065 N.3       1 <0>        -0.4320
     31 N3         -2.7962    6.5469   -8.7349 N.3       1 <0>        -0.9031
     32 N4          5.2178    9.0330   -8.4337 N.3       1 <0>        -0.9068
     33 N5          1.4800    2.3978   -4.3257 N.am      1 <0>        -0.5526
     34 N6          0.6426    3.2153   -7.3763 N.am      1 <0>        -0.5576
     35 O1         -1.9526    4.5762   -6.3040 O.2       1 <0>        -0.6710
     36 O2          3.8302    3.7133   -5.7870 O.2       1 <0>        -0.4901
     37 O3          2.6437    0.9181   -5.7301 O.2       1 <0>        -0.5902
     38 O4          0.3766    2.7593   -9.6452 O.2       1 <0>        -0.5833
     39 H1         -7.4936   10.2689   -8.0633 H         1 <0>         0.1320
     40 H2         -5.0642   10.7711   -8.0510 H         1 <0>         0.1324
     41 H3         -8.2983    8.0173   -7.4018 H         1 <0>         0.1328
     42 H4         -3.4404    9.0308   -7.3802 H         1 <0>         0.1324
     43 H5         -6.6828    6.2700   -6.7292 H         1 <0>         0.1434
     44 H6         -1.6957   -0.1132   -0.8650 H         1 <0>         0.0405
     45 H7         -1.9720    1.4629   -1.6036 H         1 <0>         0.0421
     46 H8         -0.0697    1.6114   -0.0650 H         1 <0>         0.0362
     47 H9          0.7299    0.2492   -0.8461 H         1 <0>         0.0439
     48 H10        -0.5524   -0.9273   -2.8766 H         1 <0>         0.0350
     49 H11        -2.1278   -0.2766   -3.3234 H         1 <0>         0.0428
     50 H12         0.1691    2.9923   -2.0772 H         1 <0>         0.0663
     51 H13         1.7400    2.3481   -1.6229 H         1 <0>         0.0466
     52 H14        -0.3275    0.4526   -4.8952 H         1 <0>         0.0493
     53 H15        -1.1165    1.8138   -4.1113 H         1 <0>         0.0520
     54 H16        -2.8519    0.8938   -8.8584 H         1 <0>         0.0915
     55 H17        -1.2935    0.8073   -9.7102 H         1 <0>         0.0601
     56 H18        -5.2314    5.7584   -9.1499 H         1 <0>         0.0688
     57 H19        -5.4801    4.7212   -7.7613 H         1 <0>         0.0630
     58 H20        -1.8289    2.6942  -11.0628 H         1 <0>         0.0807
     59 H21        -3.4401    1.9950  -10.8925 H         1 <0>         0.0380
     60 H22        -4.7690    2.8732   -8.8248 H         1 <0>         0.0484
     61 H23        -4.9562    3.8199  -10.2995 H         1 <0>         0.0697
     62 H24        -1.5441    2.0192   -7.2167 H         1 <0>         0.0843
     63 H25         1.5948    0.5889   -3.3505 H         1 <0>         0.0831
     64 H26        -3.1056    6.9377   -6.1322 H         1 <0>         0.0704
     65 H27        -4.4243    5.8149   -5.8674 H         1 <0>         0.0718
     66 H28         4.0550    5.0981   -8.7294 H         1 <0>         0.0606
     67 H29         4.2035    5.3200   -6.9896 H         1 <0>         0.0458
     68 H30         3.1762    7.3642   -9.0068 H         1 <0>         0.0375
     69 H31         3.2423    7.6502   -7.2709 H         1 <0>         0.0392
     70 H32         1.5916    5.3838   -8.5996 H         1 <0>         0.0606
     71 H33         1.6928    5.6841   -6.8667 H         1 <0>         0.0579
     72 H34         5.6557    7.0931   -9.0916 H         1 <0>         0.0571
     73 H35         5.7562    7.3441   -7.3424 H         1 <0>         0.0503
     74 H36         2.4714    3.0747   -8.2388 H         1 <0>         0.0993
     75 H37        -2.7475    6.2791   -9.6905 H         1 <0>         0.3700
     76 H38        -2.2234    7.2564   -8.3400 H         1 <0>         0.3660
     77 H39         6.0938    9.4532   -8.6597 H         1 <0>         0.3465
     78 H40         4.4297    9.5689   -8.1390 H         1 <0>         0.3446
     79 H41         1.2844    3.3846   -4.1861 H         1 <0>         0.3148
     80 H42         0.1596    3.2148   -6.4798 H         1 <0>         0.3220
@<TRIPOS>BOND
     1    1    2 ar
     2    1    3 ar
     3    2    4 ar
     4    3    5 ar
     5    4    6 ar
     6    5    6 ar
     7    6   23 1
     8    7   22 1
     9    7   29 am
    10    7   35 2
    11    8    9 1
    12    8   28 1
    13    8   36 2
    14    9   33 am
    15    9   37 2
    16   10   20 1
    17   10   34 am
    18   10   38 2
    19   11   12 1
    20   11   13 1
    21   12   14 1
    22   13   15 1
    23   14   21 1
    24   15   21 1
    25   16   18 1
    26   16   20 1
    27   17   19 1
    28   17   22 1
    29   18   30 1
    30   19   30 1
    31   20   29 1
    32   21   33 1
    33   22   23 1
    34   22   31 1
    35   24   25 1
    36   24   26 1
    37   25   27 1
    38   26   28 1
    39   27   32 1
    40   28   34 1
    41   29   30 1
    42    1   39 1
    43    2   40 1
    44    3   41 1
    45    4   42 1
    46    5   43 1
    47   11   44 1
    48   11   45 1
    49   12   46 1
    50   12   47 1
    51   13   48 1
    52   13   49 1
    53   14   50 1
    54   14   51 1
    55   15   52 1
    56   15   53 1
    57   16   54 1
    58   16   55 1
    59   17   56 1
    60   17   57 1
    61   18   58 1
    62   18   59 1
    63   19   60 1
    64   19   61 1
    65   20   62 1
    66   21   63 1
    67   23   64 1
    68   23   65 1
    69   24   66 1
    70   24   67 1
    71   25   68 1
    72   25   69 1
    73   26   70 1
    74   26   71 1
    75   27   72 1
    76   27   73 1
    77   28   74 1
    78   31   75 1
    79   31   76 1
    80   32   77 1
    81   32   78 1
    82   33   79 1
    83   34   80 1
@<TRIPOS>MOLECULE
1a46_ligand_295
   80    83     0     0     0
SMALL
USER_CHARGES

mmff94s_NoEstat = 87.73
@<TRIPOS>ATOM
      1 C1         -2.6445   10.2618   -2.2387 C.ar      1 <0>        -0.1300
      2 C2         -2.3767    9.6884   -0.9957 C.ar      1 <0>        -0.1323
      3 C3         -2.1497    9.6701   -3.4009 C.ar      1 <0>        -0.1309
      4 C4         -1.6141    8.5233   -0.9148 C.ar      1 <0>        -0.1275
      5 C5         -1.3871    8.5049   -3.3201 C.ar      1 <0>        -0.1272
      6 C6         -1.1243    7.9391   -2.0776 C.ar      1 <0>        -0.0843
      7 C7          2.0326    5.7272   -1.7627 C.2       1 <0>         0.6709
      8 C8          5.2358    2.3798    1.5634 C.2       1 <0>         0.4867
      9 C9          4.0737    1.7586    0.8450 C.2       1 <0>         0.5883
     10 C10         4.7954    4.5647   -0.6048 C.2       1 <0>         0.6572
     11 C11        -0.3101    1.8066    3.1204 C.3       1 <0>        -0.0802
     12 C12         0.7521    0.7144    3.0271 C.3       1 <0>        -0.0765
     13 C13         0.1163    3.0793    2.3936 C.3       1 <0>        -0.0774
     14 C14         1.1457    0.4346    1.5761 C.3       1 <0>        -0.0953
     15 C15         0.5110    2.7940    0.9439 C.3       1 <0>        -0.0906
     16 C16         5.5346    5.5870   -2.7713 C.3       1 <0>        -0.0871
     17 C17         1.6625    7.8714   -3.0437 C.3       1 <0>        -0.0716
     18 C18         5.3303    7.0689   -2.4625 C.3       1 <0>         0.1333
     19 C19         3.1731    7.8019   -3.3266 C.3       1 <0>         0.1246
     20 C20         4.4137    4.9104   -2.0113 C.3       1 <0>         0.0606
     21 C21         1.5791    1.6990    0.8223 C.3       1 <0>         0.1012
     22 C22         1.1885    7.0064   -1.8522 C.3       1 <0>         0.1554
     23 C23        -0.3040    6.6858   -1.9906 C.3       1 <0>        -0.0356
     24 C24         7.6485    3.7409    2.8432 C.3       1 <0>        -0.0795
     25 C25         8.2774    4.8743    3.6620 C.3       1 <0>        -0.1203
     26 C26         6.9719    4.2276    1.5544 C.3       1 <0>        -0.0920
     27 C27         8.9284    4.3945    4.9589 C.3       1 <0>         0.1502
     28 C28         6.2906    3.1130    0.7514 C.3       1 <0>         0.0224
     29 N1          3.3921    5.9372   -1.9343 N.am      1 <0>        -0.3553
     30 N2          3.8913    7.2279   -2.1903 N.3       1 <0>        -0.4320
     31 N3          1.3958    7.7147   -0.5806 N.3       1 <0>        -0.9031
     32 N4          9.4866    5.5266    5.6910 N.3       1 <0>        -0.9068
     33 N5          2.8617    2.1823    1.3384 N.am      1 <0>        -0.5526
     34 N6          5.7762    3.5917   -0.5046 N.am      1 <0>        -0.5576
     35 O1          1.5345    4.6231   -1.5437 O.2       1 <0>        -0.6710
     36 O2          5.3022    2.1819    2.7699 O.2       1 <0>        -0.4901
     37 O3          4.3127    0.9617   -0.0474 O.2       1 <0>        -0.5902
     38 O4          4.2448    5.1367    0.3286 O.2       1 <0>        -0.5833
     39 H1         -3.2382   11.1691   -2.3016 H         1 <0>         0.1320
     40 H2         -2.7620   10.1493   -0.0908 H         1 <0>         0.1324
     41 H3         -2.3582   10.1168   -4.3687 H         1 <0>         0.1328
     42 H4         -1.4106    8.0836    0.0580 H         1 <0>         0.1324
     43 H5         -1.0058    8.0510   -4.2309 H         1 <0>         0.1434
     44 H6         -1.2478    1.4382    2.6861 H         1 <0>         0.0405
     45 H7         -0.5145    2.0336    4.1728 H         1 <0>         0.0421
     46 H8          1.6374    1.0154    3.6002 H         1 <0>         0.0362
     47 H9          0.3743   -0.2054    3.4883 H         1 <0>         0.0439
     48 H10        -0.7038    3.8062    2.4141 H         1 <0>         0.0350
     49 H11         0.9594    3.5381    2.9241 H         1 <0>         0.0428
     50 H12         1.9510   -0.3097    1.5585 H         1 <0>         0.0663
     51 H13         0.2884   -0.0125    1.0569 H         1 <0>         0.0466
     52 H14        -0.3828    2.4825    0.3884 H         1 <0>         0.0493
     53 H15         0.8670    3.7212    0.4787 H         1 <0>         0.0520
     54 H16         5.4011    5.4209   -3.8475 H         1 <0>         0.0915
     55 H17         6.5319    5.2374   -2.4876 H         1 <0>         0.0601
     56 H18         1.3705    8.9173   -2.8778 H         1 <0>         0.0688
     57 H19         1.1370    7.5576   -3.9559 H         1 <0>         0.0630
     58 H20         5.8802    7.3284   -1.5498 H         1 <0>         0.0807
     59 H21         5.7080    7.7145   -3.2631 H         1 <0>         0.0380
     60 H22         3.3395    7.2079   -4.2360 H         1 <0>         0.0484
     61 H23         3.5406    8.8134   -3.5374 H         1 <0>         0.0697
     62 H24         4.0335    4.0099   -2.5019 H         1 <0>         0.0843
     63 H25         1.7501    1.4622   -0.2331 H         1 <0>         0.0831
     64 H26        -0.6181    6.0842   -1.1357 H         1 <0>         0.0704
     65 H27        -0.4536    6.0709   -2.8800 H         1 <0>         0.0718
     66 H28         8.4445    3.0306    2.5915 H         1 <0>         0.0606
     67 H29         6.9275    3.2007    3.4679 H         1 <0>         0.0458
     68 H30         9.0354    5.3625    3.0356 H         1 <0>         0.0375
     69 H31         7.5157    5.6329    3.8824 H         1 <0>         0.0392
     70 H32         7.7210    4.7221    0.9235 H         1 <0>         0.0606
     71 H33         6.2174    4.9831    1.8035 H         1 <0>         0.0579
     72 H34         9.7251    3.6753    4.7403 H         1 <0>         0.0571
     73 H35         8.1937    3.8977    5.5994 H         1 <0>         0.0503
     74 H36         7.0421    2.3587    0.4881 H         1 <0>         0.0993
     75 H37         2.1998    8.2929   -0.4996 H         1 <0>         0.3700
     76 H38         0.8492    7.4324    0.1998 H         1 <0>         0.3660
     77 H39        10.0430    5.3371    6.4969 H         1 <0>         0.3465
     78 H40         9.1331    6.4373    5.4892 H         1 <0>         0.3446
     79 H41         2.8559    2.8605    2.0944 H         1 <0>         0.3148
     80 H42         6.1527    3.1949   -1.3636 H         1 <0>         0.3220
@<TRIPOS>BOND
     1    1    2 ar
     2    1    3 ar
     3    2    4 ar
     4    3    5 ar
     5    4    6 ar
     6    5    6 ar
     7    6   23 1
     8    7   22 1
     9    7   29 am
    10    7   35 2
    11    8    9 1
    12    8   28 1
    13    8   36 2
    14    9   33 am
    15    9   37 2
    16   10   20 1
    17   10   34 am
    18   10   38 2
    19   11   12 1
    20   11   13 1
    21   12   14 1
    22   13   15 1
    23   14   21 1
    24   15   21 1
    25   16   18 1
    26   16   20 1
    27   17   19 1
    28   17   22 1
    29   18   30 1
    30   19   30 1
    31   20   29 1
    32   21   33 1
    33   22   23 1
    34   22   31 1
    35   24   25 1
    36   24   26 1
    37   25   27 1
    38   26   28 1
    39   27   32 1
    40   28   34 1
    41   29   30 1
    42    1   39 1
    43    2   40 1
    44    3   41 1
    45    4   42 1
    46    5   43 1
    47   11   44 1
    48   11   45 1
    49   12   46 1
    50   12   47 1
    51   13   48 1
    52   13   49 1
    53   14   50 1
    54   14   51 1
    55   15   52 1
    56   15   53 1
    57   16   54 1
    58   16   55 1
    59   17   56 1
    60   17   57 1
    61   18   58 1
    62   18   59 1
    63   19   60 1
    64   19   61 1
    65   20   62 1
    66   21   63 1
    67   23   64 1
    68   23   65 1
    69   24   66 1
    70   24   67 1
    71   25   68 1
    72   25   69 1
    73   26   70 1
    74   26   71 1
    75   27   72 1
    76   27   73 1
    77   28   74 1
    78   31   75 1
    79   31   76 1
    80   32   77 1
    81   32   78 1
    82   33   79 1
    83   34   80 1
@<TRIPOS>MOLECULE
1a46_ligand_296
   80    83     0     0     0
SMALL
USER_CHARGES

mmff94s_NoEstat = 87.75
@<TRIPOS>ATOM
      1 C1         11.2754    4.8325   -9.0920 C.ar      1 <0>        -0.1300
      2 C2         11.7701    4.4180   -7.8554 C.ar      1 <0>        -0.1323
      3 C3         10.0202    5.4353   -9.1745 C.ar      1 <0>        -0.1309
      4 C4         11.0095    4.6062   -6.7014 C.ar      1 <0>        -0.1275
      5 C5          9.2596    5.6235   -8.0205 C.ar      1 <0>        -0.1272
      6 C6          9.7592    5.2077   -6.7914 C.ar      1 <0>        -0.0843
      7 C7          7.1956    4.4061   -4.0088 C.2       1 <0>         0.6709
      8 C8          5.2358    2.3798    1.5634 C.2       1 <0>         0.4867
      9 C9          3.8230    2.3549    1.0577 C.2       1 <0>         0.5883
     10 C10         5.7098    2.8119   -1.6475 C.2       1 <0>         0.6572
     11 C11         0.1943    2.5042    4.4055 C.3       1 <0>        -0.0802
     12 C12         0.8241    1.3237    3.6709 C.3       1 <0>        -0.0765
     13 C13         0.8490    3.8286    4.0220 C.3       1 <0>        -0.0774
     14 C14         0.8252    1.5389    2.1568 C.3       1 <0>        -0.0953
     15 C15         0.8496    4.0381    2.5071 C.3       1 <0>        -0.0906
     16 C16         3.9879    2.7570   -3.4688 C.3       1 <0>        -0.0871
     17 C17         7.1089    3.9469   -6.4901 C.3       1 <0>        -0.0716
     18 C18         4.6769    1.8362   -4.4740 C.3       1 <0>         0.1333
     19 C19         5.8233    3.1683   -6.1618 C.3       1 <0>         0.1246
     20 C20         5.1372    3.5153   -2.8394 C.3       1 <0>         0.0606
     21 C21         1.4786    2.8646    1.7442 C.3       1 <0>         0.1012
     22 C22         8.0351    4.2042   -5.2782 C.3       1 <0>         0.1554
     23 C23         8.9412    5.4102   -5.5501 C.3       1 <0>        -0.0356
     24 C24         7.6485    3.7409    2.8432 C.3       1 <0>        -0.0795
     25 C25         8.2774    4.8743    3.6620 C.3       1 <0>        -0.1203
     26 C26         6.9719    4.2276    1.5544 C.3       1 <0>        -0.0920
     27 C27         8.9284    4.3945    4.9589 C.3       1 <0>         0.1502
     28 C28         6.2906    3.1130    0.7514 C.3       1 <0>         0.0224
     29 N1          6.1557    3.4998   -3.8720 N.am      1 <0>        -0.3553
     30 N2          5.9246    2.5201   -4.8556 N.3       1 <0>        -0.4320
     31 N3          8.8854    3.0337   -5.0159 N.3       1 <0>        -0.9031
     32 N4          9.4866    5.5266    5.6910 N.3       1 <0>        -0.9068
     33 N5          2.9218    2.8162    1.9889 N.am      1 <0>        -0.5526
     34 N6          5.7762    3.5917   -0.5046 N.am      1 <0>        -0.5576
     35 O1          7.4442    5.2891   -3.1880 O.2       1 <0>        -0.6710
     36 O2          5.4669    1.7271    2.5732 O.2       1 <0>        -0.4901
     37 O3          3.6258    1.9273   -0.0679 O.2       1 <0>        -0.5902
     38 O4          6.0670    1.6440   -1.7490 O.2       1 <0>        -0.5833
     39 H1         11.8675    4.6858   -9.9905 H         1 <0>         0.1320
     40 H2         12.7474    3.9487   -7.7912 H         1 <0>         0.1324
     41 H3          9.6350    5.7578  -10.1374 H         1 <0>         0.1328
     42 H4         11.4031    4.2801   -5.7423 H         1 <0>         0.1324
     43 H5          8.2827    6.0940   -8.0945 H         1 <0>         0.1434
     44 H6         -0.8764    2.5478    4.1705 H         1 <0>         0.0405
     45 H7          0.2765    2.3517    5.4876 H         1 <0>         0.0421
     46 H8          1.8516    1.1783    4.0256 H         1 <0>         0.0362
     47 H9          0.2739    0.4065    3.9103 H         1 <0>         0.0439
     48 H10         0.3166    4.6552    4.5063 H         1 <0>         0.0350
     49 H11         1.8783    3.8505    4.3999 H         1 <0>         0.0428
     50 H12         1.3389    0.6988    1.6740 H         1 <0>         0.0663
     51 H13        -0.2116    1.5264    1.7970 H         1 <0>         0.0466
     52 H14        -0.1857    4.1693    2.1674 H         1 <0>         0.0493
     53 H15         1.3811    4.9684    2.2727 H         1 <0>         0.0520
     54 H16         3.3373    3.4571   -4.0075 H         1 <0>         0.0915
     55 H17         3.3792    2.2031   -2.7476 H         1 <0>         0.0601
     56 H18         7.6671    3.4155   -7.2730 H         1 <0>         0.0688
     57 H19         6.8138    4.9067   -6.9355 H         1 <0>         0.0630
     58 H20         4.9425    0.8939   -3.9800 H         1 <0>         0.0807
     59 H21         4.0270    1.5868   -5.3200 H         1 <0>         0.0380
     60 H22         4.9696    3.8594   -6.1912 H         1 <0>         0.0484
     61 H23         5.6526    2.4206   -6.9455 H         1 <0>         0.0697
     62 H24         4.8809    4.5388   -2.5517 H         1 <0>         0.0843
     63 H25         1.3617    3.0169    0.6661 H         1 <0>         0.0831
     64 H26         9.5913    5.5668   -4.6874 H         1 <0>         0.0704
     65 H27         8.3224    6.3045   -5.6440 H         1 <0>         0.0718
     66 H28         8.4445    3.0306    2.5915 H         1 <0>         0.0606
     67 H29         6.9275    3.2007    3.4679 H         1 <0>         0.0458
     68 H30         9.0354    5.3625    3.0356 H         1 <0>         0.0375
     69 H31         7.5157    5.6329    3.8824 H         1 <0>         0.0392
     70 H32         7.7210    4.7221    0.9235 H         1 <0>         0.0606
     71 H33         6.2174    4.9831    1.8035 H         1 <0>         0.0579
     72 H34         9.7251    3.6753    4.7403 H         1 <0>         0.0571
     73 H35         8.1937    3.8977    5.5994 H         1 <0>         0.0503
     74 H36         7.0421    2.3587    0.4881 H         1 <0>         0.0993
     75 H37         8.4943    2.1340   -5.1738 H         1 <0>         0.3700
     76 H38         9.7264    3.1786   -4.5069 H         1 <0>         0.3660
     77 H39        10.0430    5.3371    6.4969 H         1 <0>         0.3465
     78 H40         9.1331    6.4373    5.4892 H         1 <0>         0.3446
     79 H41         3.2728    3.1375    2.8861 H         1 <0>         0.3148
     80 H42         5.4441    4.5531   -0.5557 H         1 <0>         0.3220
@<TRIPOS>BOND
     1    1    2 ar
     2    1    3 ar
     3    2    4 ar
     4    3    5 ar
     5    4    6 ar
     6    5    6 ar
     7    6   23 1
     8    7   22 1
     9    7   29 am
    10    7   35 2
    11    8    9 1
    12    8   28 1
    13    8   36 2
    14    9   33 am
    15    9   37 2
    16   10   20 1
    17   10   34 am
    18   10   38 2
    19   11   12 1
    20   11   13 1
    21   12   14 1
    22   13   15 1
    23   14   21 1
    24   15   21 1
    25   16   18 1
    26   16   20 1
    27   17   19 1
    28   17   22 1
    29   18   30 1
    30   19   30 1
    31   20   29 1
    32   21   33 1
    33   22   23 1
    34   22   31 1
    35   24   25 1
    36   24   26 1
    37   25   27 1
    38   26   28 1
    39   27   32 1
    40   28   34 1
    41   29   30 1
    42    1   39 1
    43    2   40 1
    44    3   41 1
    45    4   42 1
    46    5   43 1
    47   11   44 1
    48   11   45 1
    49   12   46 1
    50   12   47 1
    51   13   48 1
    52   13   49 1
    53   14   50 1
    54   14   51 1
    55   15   52 1
    56   15   53 1
    57   16   54 1
    58   16   55 1
    59   17   56 1
    60   17   57 1
    61   18   58 1
    62   18   59 1
    63   19   60 1
    64   19   61 1
    65   20   62 1
    66   21   63 1
    67   23   64 1
    68   23   65 1
    69   24   66 1
    70   24   67 1
    71   25   68 1
    72   25   69 1
    73   26   70 1
    74   26   71 1
    75   27   72 1
    76   27   73 1
    77   28   74 1
    78   31   75 1
    79   31   76 1
    80   32   77 1
    81   32   78 1
    82   33   79 1
    83   34   80 1
@<TRIPOS>MOLECULE
1a46_ligand_297
   80    83     0     0     0
SMALL
USER_CHARGES

mmff94s_NoEstat = 87.75
@<TRIPOS>ATOM
      1 C1          5.9504   -1.3642  -10.1903 C.ar      1 <0>        -0.1300
      2 C2          6.6765   -1.8241   -9.0918 C.ar      1 <0>        -0.1323
      3 C3          5.5463   -0.0305  -10.2504 C.ar      1 <0>        -0.1309
      4 C4          6.9984   -0.9504   -8.0532 C.ar      1 <0>        -0.1275
      5 C5          5.8681    0.8432   -9.2119 C.ar      1 <0>        -0.1272
      6 C6          6.5921    0.3776   -8.1201 C.ar      1 <0>        -0.0843
      7 C7          6.1974    2.2868   -4.7798 C.2       1 <0>         0.6709
      8 C8          5.2358    2.3798    1.5634 C.2       1 <0>         0.4867
      9 C9          5.6522    1.1980    2.3894 C.2       1 <0>         0.5883
     10 C10         5.7098    2.8119   -1.6475 C.2       1 <0>         0.6572
     11 C11         8.2033    2.0193    6.5384 C.3       1 <0>        -0.0802
     12 C12         8.9691    2.0883    5.2198 C.3       1 <0>        -0.0765
     13 C13         6.7223    1.7204    6.3220 C.3       1 <0>        -0.0774
     14 C14         8.7614    0.8261    4.3817 C.3       1 <0>        -0.0953
     15 C15         6.5199    0.4588    5.4816 C.3       1 <0>        -0.0906
     16 C16         3.6723    3.8570   -2.6681 C.3       1 <0>        -0.0871
     17 C17         4.4858    1.7161   -6.5463 C.3       1 <0>        -0.0716
     18 C18         2.9535    2.6133   -3.1875 C.3       1 <0>         0.1333
     19 C19         3.4659    2.2898   -5.5476 C.3       1 <0>         0.1246
     20 C20         5.1372    3.5153   -2.8394 C.3       1 <0>         0.0606
     21 C21         7.2794    0.5030    4.1490 C.3       1 <0>         0.1012
     22 C22         5.8481    1.3265   -5.9256 C.3       1 <0>         0.1554
     23 C23         6.9383    1.3175   -7.0029 C.3       1 <0>        -0.0356
     24 C24         8.0800    4.9598    0.7851 C.3       1 <0>        -0.0795
     25 C25         8.7880    6.0338    1.6192 C.3       1 <0>        -0.1203
     26 C26         6.9719    4.2276    1.5544 C.3       1 <0>        -0.0920
     27 C27         9.9095    6.7454    0.8629 C.3       1 <0>         0.1502
     28 C28         6.2906    3.1130    0.7514 C.3       1 <0>         0.0224
     29 N1          5.1345    2.5635   -3.9339 N.am      1 <0>        -0.3553
     30 N2          3.8653    2.0037   -4.1710 N.3       1 <0>        -0.4320
     31 N3          5.7803   -0.0123   -5.3216 N.3       1 <0>        -0.9031
     32 N4         10.5470    7.7366    1.7233 N.3       1 <0>        -0.9068
     33 N5          6.6784    1.4957    3.2556 N.am      1 <0>        -0.5526
     34 N6          5.7762    3.5917   -0.5046 N.am      1 <0>        -0.5576
     35 O1          7.3278    2.7504   -4.6301 O.2       1 <0>        -0.6710
     36 O2          4.0675    2.7325    1.6631 O.2       1 <0>        -0.4901
     37 O3          5.0785    0.1378    2.2009 O.2       1 <0>        -0.5902
     38 O4          6.0670    1.6440   -1.7490 O.2       1 <0>        -0.5833
     39 H1          5.6997   -2.0446  -10.9989 H         1 <0>         0.1320
     40 H2          6.9911   -2.8626   -9.0451 H         1 <0>         0.1324
     41 H3          4.9808    0.3274  -11.1059 H         1 <0>         0.1328
     42 H4          7.5644   -1.3176   -7.2012 H         1 <0>         0.1324
     43 H5          5.5489    1.8806   -9.2673 H         1 <0>         0.1434
     44 H6          8.6419    1.2382    7.1717 H         1 <0>         0.0405
     45 H7          8.3135    2.9662    7.0790 H         1 <0>         0.0421
     46 H8          8.6421    2.9682    4.6527 H         1 <0>         0.0362
     47 H9         10.0379    2.2218    5.4226 H         1 <0>         0.0439
     48 H10         6.2267    1.5983    7.2920 H         1 <0>         0.0350
     49 H11         6.2452    2.5755    5.8281 H         1 <0>         0.0428
     50 H12         9.2774    0.9428    3.4210 H         1 <0>         0.0663
     51 H13         9.2336   -0.0211    4.8951 H         1 <0>         0.0466
     52 H14         6.8632   -0.4096    6.0583 H         1 <0>         0.0493
     53 H15         5.4478    0.3156    5.3000 H         1 <0>         0.0520
     54 H16         3.4181    4.7133   -3.3051 H         1 <0>         0.0915
     55 H17         3.3944    4.0971   -1.6373 H         1 <0>         0.0601
     56 H18         4.0497    0.8441   -7.0524 H         1 <0>         0.0688
     57 H19         4.6431    2.4675   -7.3320 H         1 <0>         0.0630
     58 H20         2.8170    1.9026   -2.3635 H         1 <0>         0.0807
     59 H21         1.9588    2.8453   -3.5837 H         1 <0>         0.0380
     60 H22         3.3744    3.3723   -5.7123 H         1 <0>         0.0484
     61 H23         2.4818    1.8533   -5.7569 H         1 <0>         0.0697
     62 H24         5.7646    4.3810   -3.0694 H         1 <0>         0.0843
     63 H25         7.1851   -0.4595    3.6354 H         1 <0>         0.0831
     64 H26         7.8868    1.0311   -6.5450 H         1 <0>         0.0704
     65 H27         7.0672    2.3317   -7.3854 H         1 <0>         0.0718
     66 H28         7.6494    5.4516   -0.0948 H         1 <0>         0.0606
     67 H29         8.8216    4.2418    0.4157 H         1 <0>         0.0458
     68 H30         8.0356    6.7709    1.9287 H         1 <0>         0.0375
     69 H31         9.1825    5.5824    2.5383 H         1 <0>         0.0392
     70 H32         6.2171    4.9575    1.8728 H         1 <0>         0.0606
     71 H33         7.3929    3.7874    2.4660 H         1 <0>         0.0579
     72 H34         9.5108    7.2416   -0.0285 H         1 <0>         0.0571
     73 H35        10.6706    6.0303    0.5375 H         1 <0>         0.0503
     74 H36         7.0421    2.3587    0.4881 H         1 <0>         0.0993
     75 H37         4.9287   -0.2795   -4.8849 H         1 <0>         0.3700
     76 H38         6.6336   -0.5056   -5.1950 H         1 <0>         0.3660
     77 H39        11.2163    8.3531    1.3147 H         1 <0>         0.3465
     78 H40        10.4498    7.6340    2.7108 H         1 <0>         0.3446
     79 H41         7.0352    2.4464    3.2766 H         1 <0>         0.3148
     80 H42         5.4441    4.5531   -0.5557 H         1 <0>         0.3220
@<TRIPOS>BOND
     1    1    2 ar
     2    1    3 ar
     3    2    4 ar
     4    3    5 ar
     5    4    6 ar
     6    5    6 ar
     7    6   23 1
     8    7   22 1
     9    7   29 am
    10    7   35 2
    11    8    9 1
    12    8   28 1
    13    8   36 2
    14    9   33 am
    15    9   37 2
    16   10   20 1
    17   10   34 am
    18   10   38 2
    19   11   12 1
    20   11   13 1
    21   12   14 1
    22   13   15 1
    23   14   21 1
    24   15   21 1
    25   16   18 1
    26   16   20 1
    27   17   19 1
    28   17   22 1
    29   18   30 1
    30   19   30 1
    31   20   29 1
    32   21   33 1
    33   22   23 1
    34   22   31 1
    35   24   25 1
    36   24   26 1
    37   25   27 1
    38   26   28 1
    39   27   32 1
    40   28   34 1
    41   29   30 1
    42    1   39 1
    43    2   40 1
    44    3   41 1
    45    4   42 1
    46    5   43 1
    47   11   44 1
    48   11   45 1
    49   12   46 1
    50   12   47 1
    51   13   48 1
    52   13   49 1
    53   14   50 1
    54   14   51 1
    55   15   52 1
    56   15   53 1
    57   16   54 1
    58   16   55 1
    59   17   56 1
    60   17   57 1
    61   18   58 1
    62   18   59 1
    63   19   60 1
    64   19   61 1
    65   20   62 1
    66   21   63 1
    67   23   64 1
    68   23   65 1
    69   24   66 1
    70   24   67 1
    71   25   68 1
    72   25   69 1
    73   26   70 1
    74   26   71 1
    75   27   72 1
    76   27   73 1
    77   28   74 1
    78   31   75 1
    79   31   76 1
    80   32   77 1
    81   32   78 1
    82   33   79 1
    83   34   80 1
@<TRIPOS>MOLECULE
1a46_ligand_298
   80    83     0     0     0
SMALL
USER_CHARGES

mmff94s_NoEstat = 87.77
@<TRIPOS>ATOM
      1 C1          9.0003   12.0144   -5.4225 C.ar      1 <0>        -0.1300
      2 C2          9.4537   11.5665   -4.1818 C.ar      1 <0>        -0.1323
      3 C3          7.8120   11.5127   -5.9535 C.ar      1 <0>        -0.1309
      4 C4          8.7189   10.6167   -3.4722 C.ar      1 <0>        -0.1275
      5 C5          7.0772   10.5629   -5.2439 C.ar      1 <0>        -0.1272
      6 C6          7.5355   10.1211   -4.0078 C.ar      1 <0>        -0.0843
      7 C7          6.3757    6.6257   -2.8269 C.2       1 <0>         0.6709
      8 C8          5.2358    2.3798    1.5634 C.2       1 <0>         0.4867
      9 C9          4.0737    1.7586    0.8450 C.2       1 <0>         0.5883
     10 C10         6.5256    3.6321   -1.6689 C.2       1 <0>         0.6572
     11 C11         1.7926   -2.0333    3.0392 C.3       1 <0>        -0.0802
     12 C12         2.8691   -2.0092    1.9574 C.3       1 <0>        -0.0765
     13 C13         1.4148   -0.6275    3.4983 C.3       1 <0>        -0.0774
     14 C14         2.4660   -1.1175    0.7822 C.3       1 <0>        -0.0953
     15 C15         1.0147    0.2608    2.3194 C.3       1 <0>        -0.0906
     16 C16         5.8400    3.2307   -4.0468 C.3       1 <0>        -0.0871
     17 C17         7.0291    7.4385   -5.1265 C.3       1 <0>        -0.0716
     18 C18         7.1120    3.6562   -4.7776 C.3       1 <0>         0.1333
     19 C19         6.8955    5.9616   -5.5361 C.3       1 <0>         0.1246
     20 C20         5.7868    4.1659   -2.8575 C.3       1 <0>         0.0606
     21 C21         2.0813    0.3030    1.2170 C.3       1 <0>         0.1012
     22 C22         7.1815    7.6752   -3.6055 C.3       1 <0>         0.1554
     23 C23         6.7451    9.0995   -3.2444 C.3       1 <0>        -0.0356
     24 C24         8.0800    4.9598    0.7851 C.3       1 <0>        -0.0795
     25 C25         8.7880    6.0338    1.6192 C.3       1 <0>        -0.1203
     26 C26         6.9719    4.2276    1.5544 C.3       1 <0>        -0.0920
     27 C27         9.9095    6.7454    0.8629 C.3       1 <0>         0.1502
     28 C28         6.2906    3.1130    0.7514 C.3       1 <0>         0.0224
     29 N1          6.5101    5.3360   -3.3173 N.am      1 <0>        -0.3553
     30 N2          7.3084    5.0783   -4.4472 N.3       1 <0>        -0.4320
     31 N3          8.5804    7.4980   -3.1893 N.3       1 <0>        -0.9031
     32 N4         10.5470    7.7366    1.7233 N.3       1 <0>        -0.9068
     33 N5          3.2649    1.0281    1.6841 N.am      1 <0>        -0.5526
     34 N6          5.7762    3.5917   -0.5046 N.am      1 <0>        -0.5576
     35 O1          5.6876    6.9159   -1.8485 O.2       1 <0>        -0.6710
     36 O2          5.3022    2.1819    2.7699 O.2       1 <0>        -0.4901
     37 O3          3.9822    1.9394   -0.3582 O.2       1 <0>        -0.5902
     38 O4          7.6924    3.2783   -1.7917 O.2       1 <0>        -0.5833
     39 H1          9.5724   12.7539   -5.9752 H         1 <0>         0.1320
     40 H2         10.3789   11.9573   -3.7685 H         1 <0>         0.1324
     41 H3          7.4591   11.8615   -6.9197 H         1 <0>         0.1328
     42 H4          9.0800   10.2736   -2.5062 H         1 <0>         0.1324
     43 H5          6.1526   10.1776   -5.6655 H         1 <0>         0.1434
     44 H6          0.9001   -2.5398    2.6511 H         1 <0>         0.0405
     45 H7          2.1436   -2.6194    3.8961 H         1 <0>         0.0421
     46 H8          3.8122   -1.6516    2.3880 H         1 <0>         0.0362
     47 H9          3.0515   -3.0286    1.5983 H         1 <0>         0.0439
     48 H10         0.5852   -0.6849    4.2123 H         1 <0>         0.0350
     49 H11         2.2609   -0.1774    4.0315 H         1 <0>         0.0428
     50 H12         3.2898   -1.0805    0.0591 H         1 <0>         0.0663
     51 H13         1.6118   -1.5754    0.2674 H         1 <0>         0.0466
     52 H14         0.0770   -0.1178    1.8931 H         1 <0>         0.0493
     53 H15         0.8108    1.2743    2.6856 H         1 <0>         0.0520
     54 H16         4.9736    3.4114   -4.6951 H         1 <0>         0.0915
     55 H17         5.8531    2.1713   -3.7729 H         1 <0>         0.0601
     56 H18         7.8805    7.8879   -5.6555 H         1 <0>         0.0688
     57 H19         6.1391    7.9685   -5.4921 H         1 <0>         0.0630
     58 H20         7.9647    3.0932   -4.3794 H         1 <0>         0.0807
     59 H21         7.0607    3.4497   -5.8523 H         1 <0>         0.0380
     60 H22         5.8545    5.7643   -5.8276 H         1 <0>         0.0484
     61 H23         7.5124    5.7838   -6.4252 H         1 <0>         0.0697
     62 H24         4.7698    4.4250   -2.5496 H         1 <0>         0.0843
     63 H25         1.7044    0.8657    0.3566 H         1 <0>         0.0831
     64 H26         6.8700    9.2469   -2.1701 H         1 <0>         0.0704
     65 H27         5.6795    9.2080   -3.4549 H         1 <0>         0.0718
     66 H28         7.6494    5.4516   -0.0948 H         1 <0>         0.0606
     67 H29         8.8216    4.2418    0.4157 H         1 <0>         0.0458
     68 H30         8.0356    6.7709    1.9287 H         1 <0>         0.0375
     69 H31         9.1825    5.5824    2.5383 H         1 <0>         0.0392
     70 H32         6.2171    4.9575    1.8728 H         1 <0>         0.0606
     71 H33         7.3929    3.7874    2.4660 H         1 <0>         0.0579
     72 H34         9.5108    7.2416   -0.0285 H         1 <0>         0.0571
     73 H35        10.6706    6.0303    0.5375 H         1 <0>         0.0503
     74 H36         7.0421    2.3587    0.4881 H         1 <0>         0.0993
     75 H37         9.1142    6.7979   -3.6499 H         1 <0>         0.3700
     76 H38         8.8693    7.9327   -2.3437 H         1 <0>         0.3660
     77 H39        11.2163    8.3531    1.3147 H         1 <0>         0.3465
     78 H40        10.4498    7.6340    2.7108 H         1 <0>         0.3446
     79 H41         3.4989    0.9899    2.6717 H         1 <0>         0.3148
     80 H42         4.8120    3.9176   -0.5391 H         1 <0>         0.3220
@<TRIPOS>BOND
     1    1    2 ar
     2    1    3 ar
     3    2    4 ar
     4    3    5 ar
     5    4    6 ar
     6    5    6 ar
     7    6   23 1
     8    7   22 1
     9    7   29 am
    10    7   35 2
    11    8    9 1
    12    8   28 1
    13    8   36 2
    14    9   33 am
    15    9   37 2
    16   10   20 1
    17   10   34 am
    18   10   38 2
    19   11   12 1
    20   11   13 1
    21   12   14 1
    22   13   15 1
    23   14   21 1
    24   15   21 1
    25   16   18 1
    26   16   20 1
    27   17   19 1
    28   17   22 1
    29   18   30 1
    30   19   30 1
    31   20   29 1
    32   21   33 1
    33   22   23 1
    34   22   31 1
    35   24   25 1
    36   24   26 1
    37   25   27 1
    38   26   28 1
    39   27   32 1
    40   28   34 1
    41   29   30 1
    42    1   39 1
    43    2   40 1
    44    3   41 1
    45    4   42 1
    46    5   43 1
    47   11   44 1
    48   11   45 1
    49   12   46 1
    50   12   47 1
    51   13   48 1
    52   13   49 1
    53   14   50 1
    54   14   51 1
    55   15   52 1
    56   15   53 1
    57   16   54 1
    58   16   55 1
    59   17   56 1
    60   17   57 1
    61   18   58 1
    62   18   59 1
    63   19   60 1
    64   19   61 1
    65   20   62 1
    66   21   63 1
    67   23   64 1
    68   23   65 1
    69   24   66 1
    70   24   67 1
    71   25   68 1
    72   25   69 1
    73   26   70 1
    74   26   71 1
    75   27   72 1
    76   27   73 1
    77   28   74 1
    78   31   75 1
    79   31   76 1
    80   32   77 1
    81   32   78 1
    82   33   79 1
    83   34   80 1
@<TRIPOS>MOLECULE
1a46_ligand_299
   80    83     0     0     0
SMALL
USER_CHARGES

mmff94s_NoEstat = 87.81
@<TRIPOS>ATOM
      1 C1          9.3427    1.2226  -10.2936 C.ar      1 <0>        -0.1300
      2 C2          9.9666    0.8172   -9.1138 C.ar      1 <0>        -0.1323
      3 C3          8.4336    2.2805  -10.2739 C.ar      1 <0>        -0.1309
      4 C4          9.6814    1.4695   -7.9143 C.ar      1 <0>        -0.1275
      5 C5          8.1485    2.9328   -9.0744 C.ar      1 <0>        -0.1272
      6 C6          8.7742    2.5231   -7.9024 C.ar      1 <0>        -0.0843
      7 C7          6.9710    3.2795   -4.5657 C.2       1 <0>         0.6709
      8 C8          5.2358    2.3798    1.5634 C.2       1 <0>         0.4867
      9 C9          5.6522    1.1980    2.3894 C.2       1 <0>         0.5883
     10 C10         5.7098    2.8119   -1.6475 C.2       1 <0>         0.6572
     11 C11         9.3963    1.9512    5.6601 C.3       1 <0>        -0.0802
     12 C12         9.6041    1.5556    4.2006 C.3       1 <0>        -0.0765
     13 C13         7.9196    2.1484    5.9921 C.3       1 <0>        -0.0774
     14 C14         8.7694    0.3303    3.8254 C.3       1 <0>        -0.0953
     15 C15         7.0890    0.9216    5.6130 C.3       1 <0>        -0.0906
     16 C16         3.6624    3.2324   -3.0320 C.3       1 <0>        -0.0871
     17 C17         6.0388    2.5547   -6.7975 C.3       1 <0>        -0.0716
     18 C18         3.6514    1.9752   -3.8994 C.3       1 <0>         0.1333
     19 C19         4.6996    2.4463   -6.0480 C.3       1 <0>         0.1246
     20 C20         5.1372    3.5153   -2.8394 C.3       1 <0>         0.0606
     21 C21         7.2794    0.5030    4.1490 C.3       1 <0>         0.1012
     22 C22         7.2891    2.5653   -5.8869 C.3       1 <0>         0.1554
     23 C23         8.4675    3.2247   -6.6121 C.3       1 <0>        -0.0356
     24 C24         8.0800    4.9598    0.7851 C.3       1 <0>        -0.0795
     25 C25         8.7880    6.0338    1.6192 C.3       1 <0>        -0.1203
     26 C26         6.9719    4.2276    1.5544 C.3       1 <0>        -0.0920
     27 C27         9.9095    6.7454    0.8629 C.3       1 <0>         0.1502
     28 C28         6.2906    3.1130    0.7514 C.3       1 <0>         0.0224
     29 N1          5.7488    2.9259   -4.0152 N.am      1 <0>        -0.3553
     30 N2          4.9069    2.0073   -4.6693 N.3       1 <0>        -0.4320
     31 N3          7.6768    1.1953   -5.5201 N.3       1 <0>        -0.9031
     32 N4         10.5470    7.7366    1.7233 N.3       1 <0>        -0.9068
     33 N5          6.6784    1.4957    3.2556 N.am      1 <0>        -0.5526
     34 N6          5.7762    3.5917   -0.5046 N.am      1 <0>        -0.5576
     35 O1          7.7474    4.0812   -4.0464 O.2       1 <0>        -0.6710
     36 O2          4.0675    2.7325    1.6631 O.2       1 <0>        -0.4901
     37 O3          5.0785    0.1378    2.2009 O.2       1 <0>        -0.5902
     38 O4          6.0670    1.6440   -1.7490 O.2       1 <0>        -0.5833
     39 H1          9.5646    0.7147  -11.2275 H         1 <0>         0.1320
     40 H2         10.6743   -0.0064   -9.1292 H         1 <0>         0.1324
     41 H3          7.9478    2.5960  -11.1926 H         1 <0>         0.1328
     42 H4         10.1723    1.1467   -7.0000 H         1 <0>         0.1324
     43 H5          7.4388    3.7559   -9.0687 H         1 <0>         0.1434
     44 H6          9.8128    1.1714    6.3098 H         1 <0>         0.0405
     45 H7          9.9491    2.8728    5.8749 H         1 <0>         0.0421
     46 H8          9.3379    2.3987    3.5518 H         1 <0>         0.0362
     47 H9         10.6652    1.3440    4.0252 H         1 <0>         0.0439
     48 H10         7.8079    2.3501    7.0636 H         1 <0>         0.0350
     49 H11         7.5407    3.0309    5.4626 H         1 <0>         0.0428
     50 H12         8.9014    0.1181    2.7575 H         1 <0>         0.0663
     51 H13         9.1535   -0.5403    4.3721 H         1 <0>         0.0466
     52 H14         7.3764    0.0850    6.2626 H         1 <0>         0.0493
     53 H15         6.0303    1.1285    5.8113 H         1 <0>         0.0520
     54 H16         3.1996    4.0578   -3.5869 H         1 <0>         0.0915
     55 H17         3.1150    3.0948   -2.0945 H         1 <0>         0.0601
     56 H18         6.1186    1.7328   -7.5220 H         1 <0>         0.0688
     57 H19         6.0134    3.4760   -7.3953 H         1 <0>         0.0630
     58 H20         3.6705    1.0888   -3.2538 H         1 <0>         0.0807
     59 H21         2.7495    1.9066   -4.5175 H         1 <0>         0.0380
     60 H22         4.1937    3.4213   -6.0771 H         1 <0>         0.0484
     61 H23         4.0529    1.7380   -6.5798 H         1 <0>         0.0697
     62 H24         5.3721    4.5807   -2.7630 H         1 <0>         0.0843
     63 H25         6.7466   -0.4344    3.9582 H         1 <0>         0.0831
     64 H26         9.3395    3.2124   -5.9558 H         1 <0>         0.0704
     65 H27         8.2279    4.2735   -6.7972 H         1 <0>         0.0718
     66 H28         7.6494    5.4516   -0.0948 H         1 <0>         0.0606
     67 H29         8.8216    4.2418    0.4157 H         1 <0>         0.0458
     68 H30         8.0356    6.7709    1.9287 H         1 <0>         0.0375
     69 H31         9.1825    5.5824    2.5383 H         1 <0>         0.0392
     70 H32         6.2171    4.9575    1.8728 H         1 <0>         0.0606
     71 H33         7.3929    3.7874    2.4660 H         1 <0>         0.0579
     72 H34         9.5108    7.2416   -0.0285 H         1 <0>         0.0571
     73 H35        10.6706    6.0303    0.5375 H         1 <0>         0.0503
     74 H36         7.0421    2.3587    0.4881 H         1 <0>         0.0993
     75 H37         6.9507    0.5323   -5.3773 H         1 <0>         0.3700
     76 H38         8.6161    1.0420   -5.2343 H         1 <0>         0.3660
     77 H39        11.2163    8.3531    1.3147 H         1 <0>         0.3465
     78 H40        10.4498    7.6340    2.7108 H         1 <0>         0.3446
     79 H41         7.0352    2.4464    3.2766 H         1 <0>         0.3148
     80 H42         5.4441    4.5531   -0.5557 H         1 <0>         0.3220
@<TRIPOS>BOND
     1    1    2 ar
     2    1    3 ar
     3    2    4 ar
     4    3    5 ar
     5    4    6 ar
     6    5    6 ar
     7    6   23 1
     8    7   22 1
     9    7   29 am
    10    7   35 2
    11    8    9 1
    12    8   28 1
    13    8   36 2
    14    9   33 am
    15    9   37 2
    16   10   20 1
    17   10   34 am
    18   10   38 2
    19   11   12 1
    20   11   13 1
    21   12   14 1
    22   13   15 1
    23   14   21 1
    24   15   21 1
    25   16   18 1
    26   16   20 1
    27   17   19 1
    28   17   22 1
    29   18   30 1
    30   19   30 1
    31   20   29 1
    32   21   33 1
    33   22   23 1
    34   22   31 1
    35   24   25 1
    36   24   26 1
    37   25   27 1
    38   26   28 1
    39   27   32 1
    40   28   34 1
    41   29   30 1
    42    1   39 1
    43    2   40 1
    44    3   41 1
    45    4   42 1
    46    5   43 1
    47   11   44 1
    48   11   45 1
    49   12   46 1
    50   12   47 1
    51   13   48 1
    52   13   49 1
    53   14   50 1
    54   14   51 1
    55   15   52 1
    56   15   53 1
    57   16   54 1
    58   16   55 1
    59   17   56 1
    60   17   57 1
    61   18   58 1
    62   18   59 1
    63   19   60 1
    64   19   61 1
    65   20   62 1
    66   21   63 1
    67   23   64 1
    68   23   65 1
    69   24   66 1
    70   24   67 1
    71   25   68 1
    72   25   69 1
    73   26   70 1
    74   26   71 1
    75   27   72 1
    76   27   73 1
    77   28   74 1
    78   31   75 1
    79   31   76 1
    80   32   77 1
    81   32   78 1
    82   33   79 1
    83   34   80 1
@<TRIPOS>MOLECULE
1a46_ligand_300
   80    83     0     0     0
SMALL
USER_CHARGES

mmff94s_NoEstat = 87.86
@<TRIPOS>ATOM
      1 C1         -7.1814    8.1831  -11.8066 C.ar      1 <0>        -0.1300
      2 C2         -5.8511    8.6018  -11.7877 C.ar      1 <0>        -0.1323
      3 C3         -7.6137    7.1932  -10.9240 C.ar      1 <0>        -0.1309
      4 C4         -4.9529    8.0306  -10.8863 C.ar      1 <0>        -0.1275
      5 C5         -6.7155    6.6220  -10.0225 C.ar      1 <0>        -0.1272
      6 C6         -5.3910    7.0444  -10.0096 C.ar      1 <0>        -0.0843
      7 C7         -2.7477    4.5672   -8.6551 C.2       1 <0>         0.6709
      8 C8          2.7796    3.2097   -6.1637 C.2       1 <0>         0.4867
      9 C9          2.2829    2.0299   -5.3801 C.2       1 <0>         0.5883
     10 C10        -0.0591    2.8141   -8.5012 C.2       1 <0>         0.6572
     11 C11        -0.0952    0.7327   -0.7029 C.3       1 <0>        -0.0802
     12 C12         1.2544    0.2267   -1.2045 C.3       1 <0>        -0.0765
     13 C13        -1.0596    1.0010   -1.8548 C.3       1 <0>        -0.0774
     14 C14         1.8632    1.1742   -2.2367 C.3       1 <0>        -0.0953
     15 C15        -0.4535    1.9500   -2.8873 C.3       1 <0>        -0.0906
     16 C16        -1.8142    1.0434   -8.7649 C.3       1 <0>        -0.0871
     17 C17        -4.7936    4.1559  -10.0766 C.3       1 <0>        -0.0716
     18 C18        -2.2713    1.3172  -10.1964 C.3       1 <0>         0.1333
     19 C19        -4.2684    2.7130  -10.1718 C.3       1 <0>         0.1246
     20 C20        -1.4789    2.4202   -8.2321 C.3       1 <0>         0.0606
     21 C21         0.8958    1.4320   -3.3972 C.3       1 <0>         0.1012
     22 C22        -3.7376    5.2000   -9.6434 C.3       1 <0>         0.1554
     23 C23        -4.4248    6.4299   -9.0399 C.3       1 <0>        -0.0356
     24 C24         3.6080    5.6033   -7.8654 C.3       1 <0>        -0.0795
     25 C25         3.7321    7.1143   -8.0937 C.3       1 <0>        -0.1203
     26 C26         2.1570    5.1335   -7.6933 C.3       1 <0>        -0.0920
     27 C27         5.1782    7.5875   -8.2387 C.3       1 <0>         0.1502
     28 C28         2.0196    3.6328   -7.4097 C.3       1 <0>         0.0224
     29 N1         -2.3208    3.2998   -9.0203 N.am      1 <0>        -0.3553
     30 N2         -2.8071    2.6894  -10.1914 N.3       1 <0>        -0.4320
     31 N3         -2.9336    5.6348  -10.7950 N.3       1 <0>        -0.9031
     32 N4          5.2178    9.0330   -8.4337 N.3       1 <0>        -0.9068
     33 N5          1.4800    2.3978   -4.3257 N.am      1 <0>        -0.5526
     34 N6          0.6426    3.2153   -7.3763 N.am      1 <0>        -0.5576
     35 O1         -2.3654    5.1506   -7.6410 O.2       1 <0>        -0.6710
     36 O2          3.8302    3.7133   -5.7870 O.2       1 <0>        -0.4901
     37 O3          2.6437    0.9181   -5.7301 O.2       1 <0>        -0.5902
     38 O4          0.3766    2.7593   -9.6452 O.2       1 <0>        -0.5833
     39 H1         -7.8808    8.6278  -12.5086 H         1 <0>         0.1320
     40 H2         -5.5146    9.3725  -12.4750 H         1 <0>         0.1324
     41 H3         -8.6496    6.8672  -10.9389 H         1 <0>         0.1328
     42 H4         -3.9182    8.3631  -10.8788 H         1 <0>         0.1324
     43 H5         -7.0613    5.8514   -9.3387 H         1 <0>         0.1434
     44 H6         -0.5335   -0.0026   -0.0187 H         1 <0>         0.0405
     45 H7          0.0526    1.6558   -0.1291 H         1 <0>         0.0421
     46 H8          1.9422    0.1116   -0.3592 H         1 <0>         0.0362
     47 H9          1.1287   -0.7669   -1.6521 H         1 <0>         0.0439
     48 H10        -1.3217    0.0532   -2.3408 H         1 <0>         0.0350
     49 H11        -1.9903    1.4277   -1.4641 H         1 <0>         0.0428
     50 H12         2.1267    2.1226   -1.7501 H         1 <0>         0.0663
     51 H13         2.8005    0.7504   -2.6175 H         1 <0>         0.0466
     52 H14        -1.1488    2.0728   -3.7266 H         1 <0>         0.0493
     53 H15        -0.3286    2.9446   -2.4393 H         1 <0>         0.0520
     54 H16        -2.6505    0.6220   -8.1933 H         1 <0>         0.0915
     55 H17        -0.9769    0.3401   -8.7238 H         1 <0>         0.0601
     56 H18        -5.2271    4.4505  -11.0420 H         1 <0>         0.0688
     57 H19        -5.6282    4.1614   -9.3624 H         1 <0>         0.0630
     58 H20        -1.4027    1.2932  -10.8654 H         1 <0>         0.0807
     59 H21        -2.9789    0.5622  -10.5565 H         1 <0>         0.0380
     60 H22        -4.6584    2.1340   -9.3232 H         1 <0>         0.0484
     61 H23        -4.6688    2.2501  -11.0817 H         1 <0>         0.0697
     62 H24        -1.6773    2.5360   -7.1628 H         1 <0>         0.0843
     63 H25         0.7468    0.5082   -3.9681 H         1 <0>         0.0831
     64 H26        -3.6625    7.1558   -8.7509 H         1 <0>         0.0704
     65 H27        -4.9408    6.1344   -8.1245 H         1 <0>         0.0718
     66 H28         4.0550    5.0981   -8.7294 H         1 <0>         0.0606
     67 H29         4.2035    5.3200   -6.9896 H         1 <0>         0.0458
     68 H30         3.1762    7.3642   -9.0068 H         1 <0>         0.0375
     69 H31         3.2423    7.6502   -7.2709 H         1 <0>         0.0392
     70 H32         1.5916    5.3838   -8.5996 H         1 <0>         0.0606
     71 H33         1.6928    5.6841   -6.8667 H         1 <0>         0.0579
     72 H34         5.6557    7.0931   -9.0916 H         1 <0>         0.0571
     73 H35         5.7562    7.3441   -7.3424 H         1 <0>         0.0503
     74 H36         2.4714    3.0747   -8.2388 H         1 <0>         0.0993
     75 H37        -2.7229    4.9595  -11.4927 H         1 <0>         0.3700
     76 H38        -2.4695    6.5111  -10.7297 H         1 <0>         0.3660
     77 H39         6.0938    9.4532   -8.6597 H         1 <0>         0.3465
     78 H40         4.4297    9.5689   -8.1390 H         1 <0>         0.3446
     79 H41         1.2844    3.3846   -4.1861 H         1 <0>         0.3148
     80 H42         0.1596    3.2148   -6.4798 H         1 <0>         0.3220
@<TRIPOS>BOND
     1    1    2 ar
     2    1    3 ar
     3    2    4 ar
     4    3    5 ar
     5    4    6 ar
     6    5    6 ar
     7    6   23 1
     8    7   22 1
     9    7   29 am
    10    7   35 2
    11    8    9 1
    12    8   28 1
    13    8   36 2
    14    9   33 am
    15    9   37 2
    16   10   20 1
    17   10   34 am
    18   10   38 2
    19   11   12 1
    20   11   13 1
    21   12   14 1
    22   13   15 1
    23   14   21 1
    24   15   21 1
    25   16   18 1
    26   16   20 1
    27   17   19 1
    28   17   22 1
    29   18   30 1
    30   19   30 1
    31   20   29 1
    32   21   33 1
    33   22   23 1
    34   22   31 1
    35   24   25 1
    36   24   26 1
    37   25   27 1
    38   26   28 1
    39   27   32 1
    40   28   34 1
    41   29   30 1
    42    1   39 1
    43    2   40 1
    44    3   41 1
    45    4   42 1
    46    5   43 1
    47   11   44 1
    48   11   45 1
    49   12   46 1
    50   12   47 1
    51   13   48 1
    52   13   49 1
    53   14   50 1
    54   14   51 1
    55   15   52 1
    56   15   53 1
    57   16   54 1
    58   16   55 1
    59   17   56 1
    60   17   57 1
    61   18   58 1
    62   18   59 1
    63   19   60 1
    64   19   61 1
    65   20   62 1
    66   21   63 1
    67   23   64 1
    68   23   65 1
    69   24   66 1
    70   24   67 1
    71   25   68 1
    72   25   69 1
    73   26   70 1
    74   26   71 1
    75   27   72 1
    76   27   73 1
    77   28   74 1
    78   31   75 1
    79   31   76 1
    80   32   77 1
    81   32   78 1
    82   33   79 1
    83   34   80 1
@<TRIPOS>MOLECULE
1a46_ligand_301
   80    83     0     0     0
SMALL
USER_CHARGES

mmff94s_NoEstat = 87.88
@<TRIPOS>ATOM
      1 C1         11.1945    5.3647   -9.7731 C.ar      1 <0>        -0.1300
      2 C2         11.8337    5.1154   -8.5586 C.ar      1 <0>        -0.1323
      3 C3          9.8873    5.8513   -9.7863 C.ar      1 <0>        -0.1309
      4 C4         11.1656    5.3526   -7.3573 C.ar      1 <0>        -0.1275
      5 C5          9.2192    6.0884   -8.5850 C.ar      1 <0>        -0.1272
      6 C6          9.8628    5.8375   -7.3783 C.ar      1 <0>        -0.0843
      7 C7          7.6425    5.1042   -4.2977 C.2       1 <0>         0.6709
      8 C8          5.2358    2.3798    1.5634 C.2       1 <0>         0.4867
      9 C9          5.6457    1.7076    2.8411 C.2       1 <0>         0.5883
     10 C10         6.5256    3.6321   -1.6689 C.2       1 <0>         0.6572
     11 C11         5.7976    4.5992    6.9518 C.3       1 <0>        -0.0802
     12 C12         6.9636    4.4336    5.9807 C.3       1 <0>        -0.0765
     13 C13         4.5615    3.8294    6.4943 C.3       1 <0>        -0.0774
     14 C14         7.2764    2.9590    5.7232 C.3       1 <0>        -0.0953
     15 C15         4.8800    2.3561    6.2359 C.3       1 <0>        -0.0906
     16 C16         4.6595    3.2577   -3.3009 C.3       1 <0>        -0.0871
     17 C17         7.3760    4.3986   -6.7074 C.3       1 <0>        -0.0716
     18 C18         5.3367    2.3027   -4.2819 C.3       1 <0>         0.1333
     19 C19         6.2012    3.5529   -6.1864 C.3       1 <0>         0.1246
     20 C20         5.7868    4.1659   -2.8575 C.3       1 <0>         0.0606
     21 C21         6.0492    2.1618    5.2613 C.3       1 <0>         0.1012
     22 C22         8.3797    4.8486   -5.6198 C.3       1 <0>         0.1554
     23 C23         9.1441    6.0926   -6.0861 C.3       1 <0>        -0.0356
     24 C24         6.0158    5.3379    2.0114 C.3       1 <0>        -0.0795
     25 C25         6.7209    6.4716    2.7653 C.3       1 <0>        -0.1203
     26 C26         6.9719    4.2276    1.5544 C.3       1 <0>        -0.0920
     27 C27         5.7742    7.5909    3.1979 C.3       1 <0>         0.1502
     28 C28         6.2906    3.1130    0.7514 C.3       1 <0>         0.0224
     29 N1          6.7058    4.1331   -3.9791 N.am      1 <0>        -0.3553
     30 N2          6.4777    3.0462   -4.8435 N.3       1 <0>        -0.4320
     31 N3          9.3531    3.7833   -5.3380 N.3       1 <0>        -0.9031
     32 N4          6.5168    8.6391    3.8900 N.3       1 <0>        -0.9068
     33 N5          5.6572    2.5717    3.9111 N.am      1 <0>        -0.5526
     34 N6          5.7762    3.5917   -0.5046 N.am      1 <0>        -0.5576
     35 O1          7.8821    6.0807   -3.5877 O.2       1 <0>        -0.6710
     36 O2          4.0412    2.3628    1.2952 O.2       1 <0>        -0.4901
     37 O3          5.9343    0.5229    2.7970 O.2       1 <0>        -0.5902
     38 O4          7.6924    3.2783   -1.7917 O.2       1 <0>        -0.5833
     39 H1         11.7147    5.1800  -10.7084 H         1 <0>         0.1320
     40 H2         12.8515    4.7366   -8.5485 H         1 <0>         0.1324
     41 H3          9.3897    6.0452  -10.7320 H         1 <0>         0.1328
     42 H4         11.6716    5.1554   -6.4159 H         1 <0>         0.1324
     43 H5          8.2009    6.4675   -8.6050 H         1 <0>         0.1434
     44 H6          6.0995    4.2430    7.9446 H         1 <0>         0.0405
     45 H7          5.5526    5.6622    7.0563 H         1 <0>         0.0421
     46 H8          6.7246    4.9330    5.0340 H         1 <0>         0.0362
     47 H9          7.8521    4.9315    6.3857 H         1 <0>         0.0439
     48 H10         3.7777    3.9070    7.2564 H         1 <0>         0.0350
     49 H11         4.1624    4.2882    5.5817 H         1 <0>         0.0428
     50 H12         8.0766    2.8857    4.9768 H         1 <0>         0.0663
     51 H13         7.6628    2.5126    6.6483 H         1 <0>         0.0466
     52 H14         5.1287    1.8750    7.1905 H         1 <0>         0.0493
     53 H15         3.9824    1.8558    5.8525 H         1 <0>         0.0520
     54 H16         3.9023    3.8458   -3.8340 H         1 <0>         0.0915
     55 H17         4.1709    2.7289   -2.4768 H         1 <0>         0.0601
     56 H18         7.9078    3.8408   -7.4902 H         1 <0>         0.0688
     57 H19         6.9559    5.2827   -7.2061 H         1 <0>         0.0630
     58 H20         5.7303    1.4383   -3.7336 H         1 <0>         0.0807
     59 H21         4.6390    1.9190   -5.0344 H         1 <0>         0.0380
     60 H22         5.2889    4.1652   -6.1941 H         1 <0>         0.0484
     61 H23         6.0298    2.7205   -6.8794 H         1 <0>         0.0697
     62 H24         5.4651    5.1881   -2.6391 H         1 <0>         0.0843
     63 H25         6.3017    1.0986    5.1911 H         1 <0>         0.0831
     64 H26         9.8520    6.3858   -5.3087 H         1 <0>         0.0704
     65 H27         8.4405    6.9195   -6.1990 H         1 <0>         0.0718
     66 H28         5.2579    4.9142    2.6804 H         1 <0>         0.0606
     67 H29         5.4809    5.7546    1.1500 H         1 <0>         0.0458
     68 H30         7.2000    6.0392    3.6534 H         1 <0>         0.0375
     69 H31         7.5258    6.8807    2.1417 H         1 <0>         0.0392
     70 H32         7.4599    3.7926    2.4354 H         1 <0>         0.0606
     71 H33         7.7645    4.6634    0.9347 H         1 <0>         0.0579
     72 H34         4.9986    7.1962    3.8630 H         1 <0>         0.0571
     73 H35         5.2784    8.0349    2.3297 H         1 <0>         0.0503
     74 H36         7.0421    2.3587    0.4881 H         1 <0>         0.0993
     75 H37         9.0331    2.8434   -5.3754 H         1 <0>         0.3700
     76 H38        10.2196    4.0460   -4.9287 H         1 <0>         0.3660
     77 H39         5.9996    9.3711    4.3277 H         1 <0>         0.3465
     78 H40         7.4997    8.7018    3.7315 H         1 <0>         0.3446
     79 H41         5.3815    3.5372    3.7580 H         1 <0>         0.3148
     80 H42         4.8120    3.9176   -0.5391 H         1 <0>         0.3220
@<TRIPOS>BOND
     1    1    2 ar
     2    1    3 ar
     3    2    4 ar
     4    3    5 ar
     5    4    6 ar
     6    5    6 ar
     7    6   23 1
     8    7   22 1
     9    7   29 am
    10    7   35 2
    11    8    9 1
    12    8   28 1
    13    8   36 2
    14    9   33 am
    15    9   37 2
    16   10   20 1
    17   10   34 am
    18   10   38 2
    19   11   12 1
    20   11   13 1
    21   12   14 1
    22   13   15 1
    23   14   21 1
    24   15   21 1
    25   16   18 1
    26   16   20 1
    27   17   19 1
    28   17   22 1
    29   18   30 1
    30   19   30 1
    31   20   29 1
    32   21   33 1
    33   22   23 1
    34   22   31 1
    35   24   25 1
    36   24   26 1
    37   25   27 1
    38   26   28 1
    39   27   32 1
    40   28   34 1
    41   29   30 1
    42    1   39 1
    43    2   40 1
    44    3   41 1
    45    4   42 1
    46    5   43 1
    47   11   44 1
    48   11   45 1
    49   12   46 1
    50   12   47 1
    51   13   48 1
    52   13   49 1
    53   14   50 1
    54   14   51 1
    55   15   52 1
    56   15   53 1
    57   16   54 1
    58   16   55 1
    59   17   56 1
    60   17   57 1
    61   18   58 1
    62   18   59 1
    63   19   60 1
    64   19   61 1
    65   20   62 1
    66   21   63 1
    67   23   64 1
    68   23   65 1
    69   24   66 1
    70   24   67 1
    71   25   68 1
    72   25   69 1
    73   26   70 1
    74   26   71 1
    75   27   72 1
    76   27   73 1
    77   28   74 1
    78   31   75 1
    79   31   76 1
    80   32   77 1
    81   32   78 1
    82   33   79 1
    83   34   80 1
@<TRIPOS>MOLECULE
1a46_ligand_302
   80    83     0     0     0
SMALL
USER_CHARGES

mmff94s_NoEstat = 87.90
@<TRIPOS>ATOM
      1 C1         -3.7305   -5.9204  -11.3537 C.ar      1 <0>        -0.1300
      2 C2         -2.4262   -5.5183  -11.6410 C.ar      1 <0>        -0.1323
      3 C3         -4.6750   -4.9808  -10.9404 C.ar      1 <0>        -0.1309
      4 C4         -2.0662   -4.1766  -11.5149 C.ar      1 <0>        -0.1275
      5 C5         -4.3150   -3.6391  -10.8142 C.ar      1 <0>        -0.1272
      6 C6         -3.0129   -3.2458  -11.1023 C.ar      1 <0>        -0.0843
      7 C7         -1.7147   -0.0189   -9.4111 C.2       1 <0>         0.6709
      8 C8          2.7796    3.2097   -6.1637 C.2       1 <0>         0.4867
      9 C9          2.0233    2.5606   -5.0416 C.2       1 <0>         0.5883
     10 C10         0.2181    1.9581   -7.7739 C.2       1 <0>         0.6572
     11 C11         1.6595    2.4826    0.3507 C.3       1 <0>        -0.0802
     12 C12         1.9553    1.2906   -0.5551 C.3       1 <0>        -0.0765
     13 C13         0.7499    3.4985   -0.3343 C.3       1 <0>        -0.0774
     14 C14         2.5236    1.7337   -1.9022 C.3       1 <0>        -0.0953
     15 C15         1.3173    3.9447   -1.6808 C.3       1 <0>        -0.0906
     16 C16        -1.7326    1.7367   -6.2145 C.3       1 <0>        -0.0871
     17 C17        -3.1871   -1.8587   -8.5042 C.3       1 <0>        -0.0716
     18 C18        -1.5889    0.2745   -5.7969 C.3       1 <0>         0.1333
     19 C19        -3.0480   -1.1203   -7.1617 C.3       1 <0>         0.1246
     20 C20        -1.2590    1.7411   -7.6524 C.3       1 <0>         0.0606
     21 C21         1.6014    2.7453   -2.5917 C.3       1 <0>         0.1012
     22 C22        -2.1125   -1.4947   -9.5555 C.3       1 <0>         0.1554
     23 C23        -2.6257   -1.8026  -10.9666 C.3       1 <0>        -0.0356
     24 C24         3.6080    5.6033   -7.8654 C.3       1 <0>        -0.0795
     25 C25         3.7321    7.1143   -8.0937 C.3       1 <0>        -0.1203
     26 C26         2.1570    5.1335   -7.6933 C.3       1 <0>        -0.0920
     27 C27         5.1782    7.5875   -8.2387 C.3       1 <0>         0.1502
     28 C28         2.0196    3.6328   -7.4097 C.3       1 <0>         0.0224
     29 N1         -1.5278    0.3875   -8.0990 N.am      1 <0>        -0.3553
     30 N2         -1.7250   -0.5121   -7.0349 N.3       1 <0>        -0.4320
     31 N3         -0.8818   -2.2667   -9.3297 N.3       1 <0>        -0.9031
     32 N4          5.2178    9.0330   -8.4337 N.3       1 <0>        -0.9068
     33 N5          2.2102    3.2024   -3.8395 N.am      1 <0>        -0.5526
     34 N6          0.6426    3.2153   -7.3763 N.am      1 <0>        -0.5576
     35 O1         -1.5651    0.7213  -10.3831 O.2       1 <0>        -0.6710
     36 O2          3.9949    3.2835   -6.0334 O.2       1 <0>        -0.4901
     37 O3          1.3678    1.5632   -5.2954 O.2       1 <0>        -0.5902
     38 O4          0.9290    1.0536   -8.1959 O.2       1 <0>        -0.5833
     39 H1         -4.0108   -6.9651  -11.4519 H         1 <0>         0.1320
     40 H2         -1.6909   -6.2500  -11.9629 H         1 <0>         0.1324
     41 H3         -5.6906   -5.2940  -10.7166 H         1 <0>         0.1328
     42 H4         -1.0476   -3.8726  -11.7408 H         1 <0>         0.1324
     43 H5         -5.0575   -2.9141  -10.4915 H         1 <0>         0.1434
     44 H6          1.1906    2.1339    1.2777 H         1 <0>         0.0405
     45 H7          2.6018    2.9688    0.6318 H         1 <0>         0.0421
     46 H8          2.6644    0.6180   -0.0595 H         1 <0>         0.0362
     47 H9          1.0336    0.7189   -0.7194 H         1 <0>         0.0439
     48 H10        -0.2429    3.0572   -0.4856 H         1 <0>         0.0350
     49 H11         0.6160    4.3704    0.3160 H         1 <0>         0.0428
     50 H12         3.5178    2.1746   -1.7510 H         1 <0>         0.0663
     51 H13         2.6676    0.8581   -2.5469 H         1 <0>         0.0466
     52 H14         0.6112    4.6270   -2.1695 H         1 <0>         0.0493
     53 H15         2.2394    4.5176   -1.5161 H         1 <0>         0.0520
     54 H16        -2.7915    2.0208   -6.1758 H         1 <0>         0.0915
     55 H17        -1.1685    2.4118   -5.5637 H         1 <0>         0.0601
     56 H18        -3.1756   -2.9428   -8.3269 H         1 <0>         0.0688
     57 H19        -4.1842   -1.6345   -8.9071 H         1 <0>         0.0630
     58 H20        -0.5812    0.1087   -5.3971 H         1 <0>         0.0807
     59 H21        -2.2993   -0.0031   -5.0104 H         1 <0>         0.0380
     60 H22        -3.8377   -0.3598   -7.0886 H         1 <0>         0.0484
     61 H23        -3.2188   -1.8335   -6.3463 H         1 <0>         0.0697
     62 H24        -1.7729    2.4744   -8.2803 H         1 <0>         0.0843
     63 H25         0.6591    2.2590   -2.8696 H         1 <0>         0.0831
     64 H26        -1.8489   -1.5475  -11.6898 H         1 <0>         0.0704
     65 H27        -3.4798   -1.1578  -11.1818 H         1 <0>         0.0718
     66 H28         4.0550    5.0981   -8.7294 H         1 <0>         0.0606
     67 H29         4.2035    5.3200   -6.9896 H         1 <0>         0.0458
     68 H30         3.1762    7.3642   -9.0068 H         1 <0>         0.0375
     69 H31         3.2423    7.6502   -7.2709 H         1 <0>         0.0392
     70 H32         1.5916    5.3838   -8.5996 H         1 <0>         0.0606
     71 H33         1.6928    5.6841   -6.8667 H         1 <0>         0.0579
     72 H34         5.6557    7.0931   -9.0916 H         1 <0>         0.0571
     73 H35         5.7562    7.3441   -7.3424 H         1 <0>         0.0503
     74 H36         2.4714    3.0747   -8.2388 H         1 <0>         0.0993
     75 H37        -0.6260   -2.4640   -8.3900 H         1 <0>         0.3700
     76 H38        -0.2603   -2.3800  -10.0968 H         1 <0>         0.3660
     77 H39         6.0938    9.4532   -8.6597 H         1 <0>         0.3465
     78 H40         4.4297    9.5689   -8.1390 H         1 <0>         0.3446
     79 H41         2.7974    4.0308   -3.8179 H         1 <0>         0.3148
     80 H42        -0.0552    3.8781   -7.0434 H         1 <0>         0.3220
@<TRIPOS>BOND
     1    1    2 ar
     2    1    3 ar
     3    2    4 ar
     4    3    5 ar
     5    4    6 ar
     6    5    6 ar
     7    6   23 1
     8    7   22 1
     9    7   29 am
    10    7   35 2
    11    8    9 1
    12    8   28 1
    13    8   36 2
    14    9   33 am
    15    9   37 2
    16   10   20 1
    17   10   34 am
    18   10   38 2
    19   11   12 1
    20   11   13 1
    21   12   14 1
    22   13   15 1
    23   14   21 1
    24   15   21 1
    25   16   18 1
    26   16   20 1
    27   17   19 1
    28   17   22 1
    29   18   30 1
    30   19   30 1
    31   20   29 1
    32   21   33 1
    33   22   23 1
    34   22   31 1
    35   24   25 1
    36   24   26 1
    37   25   27 1
    38   26   28 1
    39   27   32 1
    40   28   34 1
    41   29   30 1
    42    1   39 1
    43    2   40 1
    44    3   41 1
    45    4   42 1
    46    5   43 1
    47   11   44 1
    48   11   45 1
    49   12   46 1
    50   12   47 1
    51   13   48 1
    52   13   49 1
    53   14   50 1
    54   14   51 1
    55   15   52 1
    56   15   53 1
    57   16   54 1
    58   16   55 1
    59   17   56 1
    60   17   57 1
    61   18   58 1
    62   18   59 1
    63   19   60 1
    64   19   61 1
    65   20   62 1
    66   21   63 1
    67   23   64 1
    68   23   65 1
    69   24   66 1
    70   24   67 1
    71   25   68 1
    72   25   69 1
    73   26   70 1
    74   26   71 1
    75   27   72 1
    76   27   73 1
    77   28   74 1
    78   31   75 1
    79   31   76 1
    80   32   77 1
    81   32   78 1
    82   33   79 1
    83   34   80 1
@<TRIPOS>MOLECULE
1a46_ligand_303
   80    83     0     0     0
SMALL
USER_CHARGES

mmff94s_NoEstat = 88.01
@<TRIPOS>ATOM
      1 C1         11.1945    5.3647   -9.7731 C.ar      1 <0>        -0.1300
      2 C2         11.8337    5.1154   -8.5586 C.ar      1 <0>        -0.1323
      3 C3          9.8873    5.8513   -9.7863 C.ar      1 <0>        -0.1309
      4 C4         11.1656    5.3526   -7.3573 C.ar      1 <0>        -0.1275
      5 C5          9.2192    6.0884   -8.5850 C.ar      1 <0>        -0.1272
      6 C6          9.8628    5.8375   -7.3783 C.ar      1 <0>        -0.0843
      7 C7          7.6425    5.1042   -4.2977 C.2       1 <0>         0.6709
      8 C8          5.2358    2.3798    1.5634 C.2       1 <0>         0.4867
      9 C9          4.0737    1.7586    0.8450 C.2       1 <0>         0.5883
     10 C10         6.5256    3.6321   -1.6689 C.2       1 <0>         0.6572
     11 C11         0.1833    0.2896    3.5104 C.3       1 <0>        -0.0802
     12 C12         1.4091   -0.6199    3.4998 C.3       1 <0>        -0.0765
     13 C13         0.4030    1.5512    2.6797 C.3       1 <0>        -0.0774
     14 C14         1.8531   -0.9493    2.0740 C.3       1 <0>        -0.0953
     15 C15         0.8490    1.2166    1.2557 C.3       1 <0>        -0.0906
     16 C16         4.6595    3.2577   -3.3009 C.3       1 <0>        -0.0871
     17 C17         7.3760    4.3986   -6.7074 C.3       1 <0>        -0.0716
     18 C18         5.3367    2.3027   -4.2819 C.3       1 <0>         0.1333
     19 C19         6.2012    3.5529   -6.1864 C.3       1 <0>         0.1246
     20 C20         5.7868    4.1659   -2.8575 C.3       1 <0>         0.0606
     21 C21         2.0813    0.3030    1.2170 C.3       1 <0>         0.1012
     22 C22         8.3797    4.8486   -5.6198 C.3       1 <0>         0.1554
     23 C23         9.1441    6.0926   -6.0861 C.3       1 <0>        -0.0356
     24 C24         6.0158    5.3379    2.0114 C.3       1 <0>        -0.0795
     25 C25         6.7209    6.4716    2.7653 C.3       1 <0>        -0.1203
     26 C26         6.9719    4.2276    1.5544 C.3       1 <0>        -0.0920
     27 C27         5.7742    7.5909    3.1979 C.3       1 <0>         0.1502
     28 C28         6.2906    3.1130    0.7514 C.3       1 <0>         0.0224
     29 N1          6.7058    4.1331   -3.9791 N.am      1 <0>        -0.3553
     30 N2          6.4777    3.0462   -4.8435 N.3       1 <0>        -0.4320
     31 N3          9.3531    3.7833   -5.3380 N.3       1 <0>        -0.9031
     32 N4          4.7531    7.0666    4.0988 N.3       1 <0>        -0.9068
     33 N5          3.2649    1.0281    1.6841 N.am      1 <0>        -0.5526
     34 N6          5.7762    3.5917   -0.5046 N.am      1 <0>        -0.5576
     35 O1          7.8821    6.0807   -3.5877 O.2       1 <0>        -0.6710
     36 O2          5.3022    2.1819    2.7699 O.2       1 <0>        -0.4901
     37 O3          3.9822    1.9394   -0.3582 O.2       1 <0>        -0.5902
     38 O4          7.6924    3.2783   -1.7917 O.2       1 <0>        -0.5833
     39 H1         11.7147    5.1800  -10.7084 H         1 <0>         0.1320
     40 H2         12.8515    4.7366   -8.5485 H         1 <0>         0.1324
     41 H3          9.3897    6.0452  -10.7320 H         1 <0>         0.1328
     42 H4         11.6716    5.1554   -6.4159 H         1 <0>         0.1324
     43 H5          8.2009    6.4675   -8.6050 H         1 <0>         0.1434
     44 H6         -0.6791   -0.2600    3.1134 H         1 <0>         0.0405
     45 H7         -0.0626    0.5654    4.5421 H         1 <0>         0.0421
     46 H8          2.2298   -0.1338    4.0410 H         1 <0>         0.0362
     47 H9          1.1821   -1.5481    4.0367 H         1 <0>         0.0439
     48 H10        -0.5242    2.1347    2.6460 H         1 <0>         0.0350
     49 H11         1.1568    2.1822    3.1658 H         1 <0>         0.0428
     50 H12         2.7685   -1.5522    2.1121 H         1 <0>         0.0663
     51 H13         1.0834   -1.5703    1.5983 H         1 <0>         0.0466
     52 H14         0.0215    0.7202    0.7329 H         1 <0>         0.0493
     53 H15         1.0533    2.1483    0.7143 H         1 <0>         0.0520
     54 H16         3.9023    3.8458   -3.8340 H         1 <0>         0.0915
     55 H17         4.1709    2.7289   -2.4768 H         1 <0>         0.0601
     56 H18         7.9078    3.8408   -7.4902 H         1 <0>         0.0688
     57 H19         6.9559    5.2827   -7.2061 H         1 <0>         0.0630
     58 H20         5.7303    1.4383   -3.7336 H         1 <0>         0.0807
     59 H21         4.6390    1.9190   -5.0344 H         1 <0>         0.0380
     60 H22         5.2889    4.1652   -6.1941 H         1 <0>         0.0484
     61 H23         6.0298    2.7205   -6.8794 H         1 <0>         0.0697
     62 H24         5.4651    5.1881   -2.6391 H         1 <0>         0.0843
     63 H25         2.2959    0.0119    0.1834 H         1 <0>         0.0831
     64 H26         9.8520    6.3858   -5.3087 H         1 <0>         0.0704
     65 H27         8.4405    6.9195   -6.1990 H         1 <0>         0.0718
     66 H28         5.2579    4.9142    2.6804 H         1 <0>         0.0606
     67 H29         5.4809    5.7546    1.1500 H         1 <0>         0.0458
     68 H30         7.2000    6.0392    3.6534 H         1 <0>         0.0375
     69 H31         7.5258    6.8807    2.1417 H         1 <0>         0.0392
     70 H32         7.4599    3.7926    2.4354 H         1 <0>         0.0606
     71 H33         7.7645    4.6634    0.9347 H         1 <0>         0.0579
     72 H34         5.2908    8.0386    2.3228 H         1 <0>         0.0571
     73 H35         6.3225    8.3806    3.7198 H         1 <0>         0.0503
     74 H36         7.0421    2.3587    0.4881 H         1 <0>         0.0993
     75 H37         9.0331    2.8434   -5.3754 H         1 <0>         0.3700
     76 H38        10.2196    4.0460   -4.9287 H         1 <0>         0.3660
     77 H39         4.0028    7.6695    4.3608 H         1 <0>         0.3465
     78 H40         4.9421    6.2118    4.5770 H         1 <0>         0.3446
     79 H41         3.4989    0.9899    2.6717 H         1 <0>         0.3148
     80 H42         4.8120    3.9176   -0.5391 H         1 <0>         0.3220
@<TRIPOS>BOND
     1    1    2 ar
     2    1    3 ar
     3    2    4 ar
     4    3    5 ar
     5    4    6 ar
     6    5    6 ar
     7    6   23 1
     8    7   22 1
     9    7   29 am
    10    7   35 2
    11    8    9 1
    12    8   28 1
    13    8   36 2
    14    9   33 am
    15    9   37 2
    16   10   20 1
    17   10   34 am
    18   10   38 2
    19   11   12 1
    20   11   13 1
    21   12   14 1
    22   13   15 1
    23   14   21 1
    24   15   21 1
    25   16   18 1
    26   16   20 1
    27   17   19 1
    28   17   22 1
    29   18   30 1
    30   19   30 1
    31   20   29 1
    32   21   33 1
    33   22   23 1
    34   22   31 1
    35   24   25 1
    36   24   26 1
    37   25   27 1
    38   26   28 1
    39   27   32 1
    40   28   34 1
    41   29   30 1
    42    1   39 1
    43    2   40 1
    44    3   41 1
    45    4   42 1
    46    5   43 1
    47   11   44 1
    48   11   45 1
    49   12   46 1
    50   12   47 1
    51   13   48 1
    52   13   49 1
    53   14   50 1
    54   14   51 1
    55   15   52 1
    56   15   53 1
    57   16   54 1
    58   16   55 1
    59   17   56 1
    60   17   57 1
    61   18   58 1
    62   18   59 1
    63   19   60 1
    64   19   61 1
    65   20   62 1
    66   21   63 1
    67   23   64 1
    68   23   65 1
    69   24   66 1
    70   24   67 1
    71   25   68 1
    72   25   69 1
    73   26   70 1
    74   26   71 1
    75   27   72 1
    76   27   73 1
    77   28   74 1
    78   31   75 1
    79   31   76 1
    80   32   77 1
    81   32   78 1
    82   33   79 1
    83   34   80 1
@<TRIPOS>MOLECULE
1a46_ligand_304
   80    83     0     0     0
SMALL
USER_CHARGES

mmff94s_NoEstat = 88.08
@<TRIPOS>ATOM
      1 C1          9.1717   11.5998   -4.8818 C.ar      1 <0>        -0.1300
      2 C2          9.5642   11.0570   -3.6583 C.ar      1 <0>        -0.1323
      3 C3          7.9808   11.1858   -5.4786 C.ar      1 <0>        -0.1309
      4 C4          8.7658   10.1002   -3.0316 C.ar      1 <0>        -0.1275
      5 C5          7.1825   10.2289   -4.8519 C.ar      1 <0>        -0.1272
      6 C6          7.5802    9.6924   -3.6325 C.ar      1 <0>        -0.0843
      7 C7          6.2313    6.1878   -2.7072 C.2       1 <0>         0.6709
      8 C8          5.2358    2.3798    1.5634 C.2       1 <0>         0.4867
      9 C9          4.0737    1.7586    0.8450 C.2       1 <0>         0.5883
     10 C10         6.2126    3.1256   -1.7338 C.2       1 <0>         0.6572
     11 C11         1.7926   -2.0333    3.0392 C.3       1 <0>        -0.0802
     12 C12         2.8691   -2.0092    1.9574 C.3       1 <0>        -0.0765
     13 C13         1.4148   -0.6275    3.4983 C.3       1 <0>        -0.0774
     14 C14         2.4660   -1.1175    0.7822 C.3       1 <0>        -0.0953
     15 C15         1.0147    0.2608    2.3194 C.3       1 <0>        -0.0906
     16 C16         5.5888    2.9013   -4.1517 C.3       1 <0>        -0.0871
     17 C17         6.9946    7.1086   -4.9309 C.3       1 <0>        -0.0716
     18 C18         6.9015    3.3122   -4.8158 C.3       1 <0>         0.1333
     19 C19         6.8105    5.6670   -5.4355 C.3       1 <0>         0.1246
     20 C20         5.5372    3.7637   -2.9085 C.3       1 <0>         0.0606
     21 C21         2.0813    0.3030    1.2170 C.3       1 <0>         0.1012
     22 C22         7.1071    7.2451   -3.3942 C.3       1 <0>         0.1554
     23 C23         6.7215    8.6631   -2.9584 C.3       1 <0>        -0.0356
     24 C24         6.0158    5.3379    2.0114 C.3       1 <0>        -0.0795
     25 C25         6.7209    6.4716    2.7653 C.3       1 <0>        -0.1203
     26 C26         6.9719    4.2276    1.5544 C.3       1 <0>        -0.0920
     27 C27         5.7742    7.5909    3.1979 C.3       1 <0>         0.1502
     28 C28         6.2906    3.1130    0.7514 C.3       1 <0>         0.0224
     29 N1          6.3255    4.9256   -3.2726 N.am      1 <0>        -0.3553
     30 N2          7.1486    4.7012   -4.3918 N.3       1 <0>        -0.4320
     31 N3          8.4826    6.9796   -2.9479 N.3       1 <0>        -0.9031
     32 N4          6.5168    8.6391    3.8900 N.3       1 <0>        -0.9068
     33 N5          3.2649    1.0281    1.6841 N.am      1 <0>        -0.5526
     34 N6          5.7762    3.5917   -0.5046 N.am      1 <0>        -0.5576
     35 O1          5.5247    6.4489   -1.7337 O.2       1 <0>        -0.6710
     36 O2          5.3022    2.1819    2.7699 O.2       1 <0>        -0.4901
     37 O3          3.9822    1.9394   -0.3582 O.2       1 <0>        -0.5902
     38 O4          7.0689    2.2691   -1.9210 O.2       1 <0>        -0.5833
     39 H1          9.7933   12.3448   -5.3699 H         1 <0>         0.1320
     40 H2         10.4914   11.3794   -3.1938 H         1 <0>         0.1324
     41 H3          7.6754   11.6084   -6.4314 H         1 <0>         0.1328
     42 H4          9.0796    9.6828   -2.0785 H         1 <0>         0.1324
     43 H5          6.2564    9.9124   -5.3244 H         1 <0>         0.1434
     44 H6          0.9001   -2.5398    2.6511 H         1 <0>         0.0405
     45 H7          2.1436   -2.6194    3.8961 H         1 <0>         0.0421
     46 H8          3.8122   -1.6516    2.3880 H         1 <0>         0.0362
     47 H9          3.0515   -3.0286    1.5983 H         1 <0>         0.0439
     48 H10         0.5852   -0.6849    4.2123 H         1 <0>         0.0350
     49 H11         2.2609   -0.1774    4.0315 H         1 <0>         0.0428
     50 H12         3.2898   -1.0805    0.0591 H         1 <0>         0.0663
     51 H13         1.6118   -1.5754    0.2674 H         1 <0>         0.0466
     52 H14         0.0770   -0.1178    1.8931 H         1 <0>         0.0493
     53 H15         0.8108    1.2743    2.6856 H         1 <0>         0.0520
     54 H16         4.7529    3.1603   -4.8133 H         1 <0>         0.0915
     55 H17         5.5468    1.8277   -3.9440 H         1 <0>         0.0601
     56 H18         7.8817    7.5503   -5.4050 H         1 <0>         0.0688
     57 H19         6.1410    7.6997   -5.2894 H         1 <0>         0.0630
     58 H20         7.7153    2.6878   -4.4279 H         1 <0>         0.0807
     59 H21         6.8766    3.1741   -5.9024 H         1 <0>         0.0380
     60 H22         5.7721    5.5353   -5.7700 H         1 <0>         0.0484
     61 H23         7.4480    5.5158   -6.3149 H         1 <0>         0.0697
     62 H24         4.5229    4.0496   -2.6159 H         1 <0>         0.0843
     63 H25         1.7044    0.8657    0.3566 H         1 <0>         0.0831
     64 H26         6.8173    8.7391   -1.8738 H         1 <0>         0.0704
     65 H27         5.6691    8.8325   -3.1938 H         1 <0>         0.0718
     66 H28         5.2579    4.9142    2.6804 H         1 <0>         0.0606
     67 H29         5.4809    5.7546    1.1500 H         1 <0>         0.0458
     68 H30         7.2000    6.0392    3.6534 H         1 <0>         0.0375
     69 H31         7.5258    6.8807    2.1417 H         1 <0>         0.0392
     70 H32         7.4599    3.7926    2.4354 H         1 <0>         0.0606
     71 H33         7.7645    4.6634    0.9347 H         1 <0>         0.0579
     72 H34         4.9986    7.1962    3.8630 H         1 <0>         0.0571
     73 H35         5.2784    8.0349    2.3297 H         1 <0>         0.0503
     74 H36         7.0421    2.3587    0.4881 H         1 <0>         0.0993
     75 H37         9.0003    6.2852   -3.4348 H         1 <0>         0.3700
     76 H38         8.7621    7.3483   -2.0685 H         1 <0>         0.3660
     77 H39         5.9996    9.3711    4.3277 H         1 <0>         0.3465
     78 H40         7.4997    8.7018    3.7315 H         1 <0>         0.3446
     79 H41         3.4989    0.9899    2.6717 H         1 <0>         0.3148
     80 H42         5.0545    4.3100   -0.4888 H         1 <0>         0.3220
@<TRIPOS>BOND
     1    1    2 ar
     2    1    3 ar
     3    2    4 ar
     4    3    5 ar
     5    4    6 ar
     6    5    6 ar
     7    6   23 1
     8    7   22 1
     9    7   29 am
    10    7   35 2
    11    8    9 1
    12    8   28 1
    13    8   36 2
    14    9   33 am
    15    9   37 2
    16   10   20 1
    17   10   34 am
    18   10   38 2
    19   11   12 1
    20   11   13 1
    21   12   14 1
    22   13   15 1
    23   14   21 1
    24   15   21 1
    25   16   18 1
    26   16   20 1
    27   17   19 1
    28   17   22 1
    29   18   30 1
    30   19   30 1
    31   20   29 1
    32   21   33 1
    33   22   23 1
    34   22   31 1
    35   24   25 1
    36   24   26 1
    37   25   27 1
    38   26   28 1
    39   27   32 1
    40   28   34 1
    41   29   30 1
    42    1   39 1
    43    2   40 1
    44    3   41 1
    45    4   42 1
    46    5   43 1
    47   11   44 1
    48   11   45 1
    49   12   46 1
    50   12   47 1
    51   13   48 1
    52   13   49 1
    53   14   50 1
    54   14   51 1
    55   15   52 1
    56   15   53 1
    57   16   54 1
    58   16   55 1
    59   17   56 1
    60   17   57 1
    61   18   58 1
    62   18   59 1
    63   19   60 1
    64   19   61 1
    65   20   62 1
    66   21   63 1
    67   23   64 1
    68   23   65 1
    69   24   66 1
    70   24   67 1
    71   25   68 1
    72   25   69 1
    73   26   70 1
    74   26   71 1
    75   27   72 1
    76   27   73 1
    77   28   74 1
    78   31   75 1
    79   31   76 1
    80   32   77 1
    81   32   78 1
    82   33   79 1
    83   34   80 1
@<TRIPOS>MOLECULE
1a46_ligand_305
   80    83     0     0     0
SMALL
USER_CHARGES

mmff94s_NoEstat = 88.14
@<TRIPOS>ATOM
      1 C1         -4.4072   -3.0319  -14.4211 C.ar      1 <0>        -0.1300
      2 C2         -3.1014   -2.5683  -14.5810 C.ar      1 <0>        -0.1323
      3 C3         -5.2666   -2.3997  -13.5224 C.ar      1 <0>        -0.1309
      4 C4         -2.6549   -1.4727  -13.8421 C.ar      1 <0>        -0.1275
      5 C5         -4.8200   -1.3041  -12.7835 C.ar      1 <0>        -0.1272
      6 C6         -3.5171   -0.8478  -12.9482 C.ar      1 <0>        -0.0843
      7 C7         -1.9267    1.0916  -10.0042 C.2       1 <0>         0.6709
      8 C8          2.7796    3.2097   -6.1637 C.2       1 <0>         0.4867
      9 C9          2.0233    2.5606   -5.0416 C.2       1 <0>         0.5883
     10 C10         0.2181    1.9581   -7.7739 C.2       1 <0>         0.6572
     11 C11         1.6595    2.4826    0.3507 C.3       1 <0>        -0.0802
     12 C12         1.9553    1.2906   -0.5551 C.3       1 <0>        -0.0765
     13 C13         0.7499    3.4985   -0.3343 C.3       1 <0>        -0.0774
     14 C14         2.5236    1.7337   -1.9022 C.3       1 <0>        -0.0953
     15 C15         1.3173    3.9447   -1.6808 C.3       1 <0>        -0.0906
     16 C16        -1.6423    1.0361   -6.3687 C.3       1 <0>        -0.0871
     17 C17        -3.4475   -0.9240   -9.9997 C.3       1 <0>        -0.0716
     18 C18        -1.5606   -0.4439   -6.7372 C.3       1 <0>         0.1333
     19 C19        -3.1819   -0.9495   -8.4846 C.3       1 <0>         0.1246
     20 C20        -1.2590    1.7411   -7.6524 C.3       1 <0>         0.0606
     21 C21         1.6014    2.7453   -2.5917 C.3       1 <0>         0.1012
     22 C22        -2.4199   -0.1108  -10.8216 C.3       1 <0>         0.1554
     23 C23        -3.0368    0.3307  -12.1535 C.3       1 <0>        -0.0356
     24 C24         3.6080    5.6033   -7.8654 C.3       1 <0>        -0.0795
     25 C25         3.7321    7.1143   -8.0937 C.3       1 <0>        -0.1203
     26 C26         2.1570    5.1335   -7.6933 C.3       1 <0>        -0.0920
     27 C27         5.1782    7.5875   -8.2387 C.3       1 <0>         0.1502
     28 C28         2.0196    3.6328   -7.4097 C.3       1 <0>         0.0224
     29 N1         -1.6352    0.7917   -8.6825 N.am      1 <0>        -0.3553
     30 N2         -1.8196   -0.5121   -8.1858 N.3       1 <0>        -0.4320
     31 N3         -1.2259   -0.9195  -11.1076 N.3       1 <0>        -0.9031
     32 N4          5.2178    9.0330   -8.4337 N.3       1 <0>        -0.9068
     33 N5          2.2102    3.2024   -3.8395 N.am      1 <0>        -0.5526
     34 N6          0.6426    3.2153   -7.3763 N.am      1 <0>        -0.5576
     35 O1         -1.7935    2.2123  -10.4955 O.2       1 <0>        -0.6710
     36 O2          3.9949    3.2835   -6.0334 O.2       1 <0>        -0.4901
     37 O3          1.3678    1.5632   -5.2954 O.2       1 <0>        -0.5902
     38 O4          0.9290    1.0536   -8.1959 O.2       1 <0>        -0.5833
     39 H1         -4.7549   -3.8850  -14.9963 H         1 <0>         0.1320
     40 H2         -2.4324   -3.0606  -15.2808 H         1 <0>         0.1324
     41 H3         -6.2832   -2.7609  -13.3979 H         1 <0>         0.1328
     42 H4         -1.6358   -1.1186  -13.9733 H         1 <0>         0.1324
     43 H5         -5.4966   -0.8180  -12.0857 H         1 <0>         0.1434
     44 H6          1.1906    2.1339    1.2777 H         1 <0>         0.0405
     45 H7          2.6018    2.9688    0.6318 H         1 <0>         0.0421
     46 H8          2.6644    0.6180   -0.0595 H         1 <0>         0.0362
     47 H9          1.0336    0.7189   -0.7194 H         1 <0>         0.0439
     48 H10        -0.2429    3.0572   -0.4856 H         1 <0>         0.0350
     49 H11         0.6160    4.3704    0.3160 H         1 <0>         0.0428
     50 H12         3.5178    2.1746   -1.7510 H         1 <0>         0.0663
     51 H13         2.6676    0.8581   -2.5469 H         1 <0>         0.0466
     52 H14         0.6112    4.6270   -2.1695 H         1 <0>         0.0493
     53 H15         2.2394    4.5176   -1.5161 H         1 <0>         0.0520
     54 H16        -2.6779    1.2865   -6.1074 H         1 <0>         0.0915
     55 H17        -0.9998    1.2887   -5.5196 H         1 <0>         0.0601
     56 H18        -3.4897   -1.9539  -10.3797 H         1 <0>         0.0688
     57 H19        -4.4523   -0.5086  -10.1558 H         1 <0>         0.0630
     58 H20        -0.5419   -0.8072   -6.5560 H         1 <0>         0.0807
     59 H21        -2.2364   -1.0589   -6.1327 H         1 <0>         0.0380
     60 H22        -3.9187   -0.3080   -7.9817 H         1 <0>         0.0484
     61 H23        -3.3442   -1.9688   -8.1140 H         1 <0>         0.0697
     62 H24        -1.7661    2.6997   -7.7936 H         1 <0>         0.0843
     63 H25         0.6591    2.2590   -2.8696 H         1 <0>         0.0831
     64 H26        -2.2923    0.8934  -12.7197 H         1 <0>         0.0704
     65 H27        -3.8625    1.0157  -11.9521 H         1 <0>         0.0718
     66 H28         4.0550    5.0981   -8.7294 H         1 <0>         0.0606
     67 H29         4.2035    5.3200   -6.9896 H         1 <0>         0.0458
     68 H30         3.1762    7.3642   -9.0068 H         1 <0>         0.0375
     69 H31         3.2423    7.6502   -7.2709 H         1 <0>         0.0392
     70 H32         1.5916    5.3838   -8.5996 H         1 <0>         0.0606
     71 H33         1.6928    5.6841   -6.8667 H         1 <0>         0.0579
     72 H34         5.6557    7.0931   -9.0916 H         1 <0>         0.0571
     73 H35         5.7562    7.3441   -7.3424 H         1 <0>         0.0503
     74 H36         2.4714    3.0747   -8.2388 H         1 <0>         0.0993
     75 H37        -0.9249   -1.5612  -10.4112 H         1 <0>         0.3700
     76 H38        -0.6609   -0.6518  -11.8799 H         1 <0>         0.3660
     77 H39         6.0938    9.4532   -8.6597 H         1 <0>         0.3465
     78 H40         4.4297    9.5689   -8.1390 H         1 <0>         0.3446
     79 H41         2.7974    4.0308   -3.8179 H         1 <0>         0.3148
     80 H42        -0.0552    3.8781   -7.0434 H         1 <0>         0.3220
@<TRIPOS>BOND
     1    1    2 ar
     2    1    3 ar
     3    2    4 ar
     4    3    5 ar
     5    4    6 ar
     6    5    6 ar
     7    6   23 1
     8    7   22 1
     9    7   29 am
    10    7   35 2
    11    8    9 1
    12    8   28 1
    13    8   36 2
    14    9   33 am
    15    9   37 2
    16   10   20 1
    17   10   34 am
    18   10   38 2
    19   11   12 1
    20   11   13 1
    21   12   14 1
    22   13   15 1
    23   14   21 1
    24   15   21 1
    25   16   18 1
    26   16   20 1
    27   17   19 1
    28   17   22 1
    29   18   30 1
    30   19   30 1
    31   20   29 1
    32   21   33 1
    33   22   23 1
    34   22   31 1
    35   24   25 1
    36   24   26 1
    37   25   27 1
    38   26   28 1
    39   27   32 1
    40   28   34 1
    41   29   30 1
    42    1   39 1
    43    2   40 1
    44    3   41 1
    45    4   42 1
    46    5   43 1
    47   11   44 1
    48   11   45 1
    49   12   46 1
    50   12   47 1
    51   13   48 1
    52   13   49 1
    53   14   50 1
    54   14   51 1
    55   15   52 1
    56   15   53 1
    57   16   54 1
    58   16   55 1
    59   17   56 1
    60   17   57 1
    61   18   58 1
    62   18   59 1
    63   19   60 1
    64   19   61 1
    65   20   62 1
    66   21   63 1
    67   23   64 1
    68   23   65 1
    69   24   66 1
    70   24   67 1
    71   25   68 1
    72   25   69 1
    73   26   70 1
    74   26   71 1
    75   27   72 1
    76   27   73 1
    77   28   74 1
    78   31   75 1
    79   31   76 1
    80   32   77 1
    81   32   78 1
    82   33   79 1
    83   34   80 1
@<TRIPOS>MOLECULE
1a46_ligand_306
   80    83     0     0     0
SMALL
USER_CHARGES

mmff94s_NoEstat = 88.19
@<TRIPOS>ATOM
      1 C1         -5.9518    1.0529  -15.7574 C.ar      1 <0>        -0.1300
      2 C2         -4.7078    1.6646  -15.9115 C.ar      1 <0>        -0.1323
      3 C3         -6.6077    1.1063  -14.5275 C.ar      1 <0>        -0.1309
      4 C4         -4.1196    2.3297  -14.8357 C.ar      1 <0>        -0.1275
      5 C5         -6.0195    1.7714  -13.4517 C.ar      1 <0>        -0.1272
      6 C6         -4.7793    2.3787  -13.6128 C.ar      1 <0>        -0.0843
      7 C7         -2.6173    2.8751  -10.4447 C.2       1 <0>         0.6709
      8 C8          2.7796    3.2097   -6.1637 C.2       1 <0>         0.4867
      9 C9          2.2829    2.0299   -5.3801 C.2       1 <0>         0.5883
     10 C10        -0.0591    2.8141   -8.5012 C.2       1 <0>         0.6572
     11 C11         1.8490   -3.3523   -5.6214 C.3       1 <0>        -0.0802
     12 C12         3.1398   -2.8454   -4.9844 C.3       1 <0>        -0.0765
     13 C13         0.7051   -2.3578   -5.4443 C.3       1 <0>        -0.0774
     14 C14         3.5170   -1.4587   -5.5030 C.3       1 <0>        -0.0953
     15 C15         1.0793   -0.9703   -5.9628 C.3       1 <0>        -0.0906
     16 C16        -1.5879    1.1654   -7.3921 C.3       1 <0>        -0.0871
     17 C17        -4.1019    0.9486  -11.1228 C.3       1 <0>        -0.0716
     18 C18        -1.5823    0.0424   -8.4274 C.3       1 <0>         0.1333
     19 C19        -3.5290    0.2485   -9.8784 C.3       1 <0>         0.1246
     20 C20        -1.4789    2.4202   -8.2321 C.3       1 <0>         0.0606
     21 C21         2.3700   -0.4604   -5.3121 C.3       1 <0>         0.1012
     22 C22        -3.2673    2.1480  -11.6303 C.3       1 <0>         0.1554
     23 C23        -4.1466    3.0941  -12.4556 C.3       1 <0>        -0.0356
     24 C24         3.6080    5.6033   -7.8654 C.3       1 <0>        -0.0795
     25 C25         3.7321    7.1143   -8.0937 C.3       1 <0>        -0.1203
     26 C26         2.1570    5.1335   -7.6933 C.3       1 <0>        -0.0920
     27 C27         5.1782    7.5875   -8.2387 C.3       1 <0>         0.1502
     28 C28         2.0196    3.6328   -7.4097 C.3       1 <0>         0.0224
     29 N1         -2.0587    2.0261   -9.5019 N.am      1 <0>        -0.3553
     30 N2         -2.1349    0.6298   -9.6602 N.3       1 <0>        -0.4320
     31 N3         -2.1572    1.6877  -12.4773 N.3       1 <0>        -0.9031
     32 N4          5.2178    9.0330   -8.4337 N.3       1 <0>        -0.9068
     33 N5          2.7371    0.8335   -5.8843 N.am      1 <0>        -0.5526
     34 N6          0.6426    3.2153   -7.3763 N.am      1 <0>        -0.5576
     35 O1         -2.5899    4.1027  -10.3594 O.2       1 <0>        -0.6710
     36 O2          3.8302    3.7133   -5.7870 O.2       1 <0>        -0.4901
     37 O3          1.5437    2.2426   -4.4330 O.2       1 <0>        -0.5902
     38 O4          0.3766    2.7593   -9.6452 O.2       1 <0>        -0.5833
     39 H1         -6.4098    0.5350  -16.5951 H         1 <0>         0.1320
     40 H2         -4.1972    1.6230  -16.8692 H         1 <0>         0.1324
     41 H3         -7.5763    0.6298  -14.4076 H         1 <0>         0.1328
     42 H4         -3.1501    2.8034  -14.9651 H         1 <0>         0.1324
     43 H5         -6.5379    1.8077  -12.4972 H         1 <0>         0.1434
     44 H6          2.0157   -3.5289   -6.6914 H         1 <0>         0.0405
     45 H7          1.5723   -4.3154   -5.1776 H         1 <0>         0.0421
     46 H8          3.0185   -2.8064   -3.8949 H         1 <0>         0.0362
     47 H9          3.9537   -3.5495   -5.1906 H         1 <0>         0.0439
     48 H10        -0.1843   -2.7208   -5.9717 H         1 <0>         0.0350
     49 H11         0.4414   -2.2905   -4.3815 H         1 <0>         0.0428
     50 H12         4.4145   -1.1032   -4.9827 H         1 <0>         0.0663
     51 H13         3.7818   -1.5267   -6.5664 H         1 <0>         0.0466
     52 H14         1.1993   -1.0088   -7.0534 H         1 <0>         0.0493
     53 H15         0.2581   -0.2707   -5.7653 H         1 <0>         0.0520
     54 H16        -2.5475    1.1615   -6.8606 H         1 <0>         0.0915
     55 H17        -0.7842    1.0569   -6.6575 H         1 <0>         0.0601
     56 H18        -4.2204    0.2148  -11.9317 H         1 <0>         0.0688
     57 H19        -5.1178    1.2870  -10.8778 H         1 <0>         0.0630
     58 H20        -0.5477   -0.2605   -8.6286 H         1 <0>         0.0807
     59 H21        -2.1179   -0.8467   -8.0766 H         1 <0>         0.0380
     60 H22        -4.1468    0.5063   -9.0071 H         1 <0>         0.0484
     61 H23        -3.6100   -0.8367  -10.0142 H         1 <0>         0.0697
     62 H24        -2.0054    3.2790   -7.8063 H         1 <0>         0.0843
     63 H25         2.2030   -0.2872   -4.2428 H         1 <0>         0.0831
     64 H26        -3.5359    3.9262  -12.8108 H         1 <0>         0.0704
     65 H27        -4.9137    3.5213  -11.8072 H         1 <0>         0.0718
     66 H28         4.0550    5.0981   -8.7294 H         1 <0>         0.0606
     67 H29         4.2035    5.3200   -6.9896 H         1 <0>         0.0458
     68 H30         3.1762    7.3642   -9.0068 H         1 <0>         0.0375
     69 H31         3.2423    7.6502   -7.2709 H         1 <0>         0.0392
     70 H32         1.5916    5.3838   -8.5996 H         1 <0>         0.0606
     71 H33         1.6928    5.6841   -6.8667 H         1 <0>         0.0579
     72 H34         5.6557    7.0931   -9.0916 H         1 <0>         0.0571
     73 H35         5.7562    7.3441   -7.3424 H         1 <0>         0.0503
     74 H36         2.4714    3.0747   -8.2388 H         1 <0>         0.0993
     75 H37        -1.7180    0.8294  -12.2371 H         1 <0>         0.3700
     76 H38        -1.7642    2.3382  -13.1175 H         1 <0>         0.3660
     77 H39         6.0938    9.4532   -8.6597 H         1 <0>         0.3465
     78 H40         4.4297    9.5689   -8.1390 H         1 <0>         0.3446
     79 H41         3.3550    0.8499   -6.6902 H         1 <0>         0.3148
     80 H42         0.1596    3.2148   -6.4798 H         1 <0>         0.3220
@<TRIPOS>BOND
     1    1    2 ar
     2    1    3 ar
     3    2    4 ar
     4    3    5 ar
     5    4    6 ar
     6    5    6 ar
     7    6   23 1
     8    7   22 1
     9    7   29 am
    10    7   35 2
    11    8    9 1
    12    8   28 1
    13    8   36 2
    14    9   33 am
    15    9   37 2
    16   10   20 1
    17   10   34 am
    18   10   38 2
    19   11   12 1
    20   11   13 1
    21   12   14 1
    22   13   15 1
    23   14   21 1
    24   15   21 1
    25   16   18 1
    26   16   20 1
    27   17   19 1
    28   17   22 1
    29   18   30 1
    30   19   30 1
    31   20   29 1
    32   21   33 1
    33   22   23 1
    34   22   31 1
    35   24   25 1
    36   24   26 1
    37   25   27 1
    38   26   28 1
    39   27   32 1
    40   28   34 1
    41   29   30 1
    42    1   39 1
    43    2   40 1
    44    3   41 1
    45    4   42 1
    46    5   43 1
    47   11   44 1
    48   11   45 1
    49   12   46 1
    50   12   47 1
    51   13   48 1
    52   13   49 1
    53   14   50 1
    54   14   51 1
    55   15   52 1
    56   15   53 1
    57   16   54 1
    58   16   55 1
    59   17   56 1
    60   17   57 1
    61   18   58 1
    62   18   59 1
    63   19   60 1
    64   19   61 1
    65   20   62 1
    66   21   63 1
    67   23   64 1
    68   23   65 1
    69   24   66 1
    70   24   67 1
    71   25   68 1
    72   25   69 1
    73   26   70 1
    74   26   71 1
    75   27   72 1
    76   27   73 1
    77   28   74 1
    78   31   75 1
    79   31   76 1
    80   32   77 1
    81   32   78 1
    82   33   79 1
    83   34   80 1
@<TRIPOS>MOLECULE
1a46_ligand_307
   80    83     0     0     0
SMALL
USER_CHARGES

mmff94s_NoEstat = 88.20
@<TRIPOS>ATOM
      1 C1         -4.2961    6.3604   -2.7495 C.ar      1 <0>        -0.1300
      2 C2         -3.8917    5.7888   -1.5431 C.ar      1 <0>        -0.1323
      3 C3         -3.4839    6.2539   -3.8786 C.ar      1 <0>        -0.1309
      4 C4         -2.6752    5.1109   -1.4657 C.ar      1 <0>        -0.1275
      5 C5         -2.2674    5.5759   -3.8012 C.ar      1 <0>        -0.1272
      6 C6         -1.8709    5.0088   -2.5952 C.ar      1 <0>        -0.0843
      7 C7          1.9202    4.4855   -2.0375 C.2       1 <0>         0.6709
      8 C8          5.2358    2.3798    1.5634 C.2       1 <0>         0.4867
      9 C9          4.0737    1.7586    0.8450 C.2       1 <0>         0.5883
     10 C10         4.7954    4.5647   -0.6048 C.2       1 <0>         0.6572
     11 C11         1.7926   -2.0333    3.0392 C.3       1 <0>        -0.0802
     12 C12         2.8691   -2.0092    1.9574 C.3       1 <0>        -0.0765
     13 C13         1.4148   -0.6275    3.4983 C.3       1 <0>        -0.0774
     14 C14         2.4660   -1.1175    0.7822 C.3       1 <0>        -0.0953
     15 C15         1.0147    0.2608    2.3194 C.3       1 <0>        -0.0906
     16 C16         5.1345    6.1376   -2.5274 C.3       1 <0>        -0.0871
     17 C17         0.6797    6.3873   -3.1418 C.3       1 <0>        -0.0716
     18 C18         4.2227    7.2889   -2.1078 C.3       1 <0>         0.1333
     19 C19         2.0578    7.0682   -3.2043 C.3       1 <0>         0.1246
     20 C20         4.4137    4.9104   -2.0113 C.3       1 <0>         0.0606
     21 C21         2.0813    0.3030    1.2170 C.3       1 <0>         0.1012
     22 C22         0.5786    5.2268   -2.1241 C.3       1 <0>         0.1554
     23 C23        -0.5623    4.2796   -2.5120 C.3       1 <0>        -0.0356
     24 C24         8.0800    4.9598    0.7851 C.3       1 <0>        -0.0795
     25 C25         8.7880    6.0338    1.6192 C.3       1 <0>        -0.1203
     26 C26         6.9719    4.2276    1.5544 C.3       1 <0>        -0.0920
     27 C27         9.9095    6.7454    0.8629 C.3       1 <0>         0.1502
     28 C28         6.2906    3.1130    0.7514 C.3       1 <0>         0.0224
     29 N1          3.0235    5.3233   -1.9852 N.am      1 <0>        -0.3553
     30 N2          2.8653    6.7208   -2.0365 N.3       1 <0>        -0.4320
     31 N3          0.3159    5.7420   -0.7724 N.3       1 <0>        -0.9031
     32 N4         10.5470    7.7366    1.7233 N.3       1 <0>        -0.9068
     33 N5          3.2649    1.0281    1.6841 N.am      1 <0>        -0.5526
     34 N6          5.7762    3.5917   -0.5046 N.am      1 <0>        -0.5576
     35 O1          1.9934    3.2573   -2.0040 O.2       1 <0>        -0.6710
     36 O2          5.3022    2.1819    2.7699 O.2       1 <0>        -0.4901
     37 O3          3.9822    1.9394   -0.3582 O.2       1 <0>        -0.5902
     38 O4          4.2448    5.1367    0.3286 O.2       1 <0>        -0.5833
     39 H1         -5.2433    6.8883   -2.8098 H         1 <0>         0.1320
     40 H2         -4.5242    5.8718   -0.6641 H         1 <0>         0.1324
     41 H3         -3.7988    6.6991   -4.8178 H         1 <0>         0.1328
     42 H4         -2.3683    4.6687   -0.5215 H         1 <0>         0.1324
     43 H5         -1.6411    5.4981   -4.6860 H         1 <0>         0.1434
     44 H6          0.9001   -2.5398    2.6511 H         1 <0>         0.0405
     45 H7          2.1436   -2.6194    3.8961 H         1 <0>         0.0421
     46 H8          3.8122   -1.6516    2.3880 H         1 <0>         0.0362
     47 H9          3.0515   -3.0286    1.5983 H         1 <0>         0.0439
     48 H10         0.5852   -0.6849    4.2123 H         1 <0>         0.0350
     49 H11         2.2609   -0.1774    4.0315 H         1 <0>         0.0428
     50 H12         3.2898   -1.0805    0.0591 H         1 <0>         0.0663
     51 H13         1.6118   -1.5754    0.2674 H         1 <0>         0.0466
     52 H14         0.0770   -0.1178    1.8931 H         1 <0>         0.0493
     53 H15         0.8108    1.2743    2.6856 H         1 <0>         0.0520
     54 H16         5.1868    6.0993   -3.6226 H         1 <0>         0.0915
     55 H17         6.1502    6.2483   -2.1355 H         1 <0>         0.0601
     56 H18        -0.0889    7.1398   -2.9187 H         1 <0>         0.0688
     57 H19         0.4458    6.0134   -4.1479 H         1 <0>         0.0630
     58 H20         4.5037    7.6265   -1.1030 H         1 <0>         0.0807
     59 H21         4.3115    8.1522   -2.7765 H         1 <0>         0.0380
     60 H22         2.5627    6.7687   -4.1331 H         1 <0>         0.0484
     61 H23         1.9139    8.1541   -3.2580 H         1 <0>         0.0697
     62 H24         4.5519    4.0254   -2.6387 H         1 <0>         0.0843
     63 H25         1.7044    0.8657    0.3566 H         1 <0>         0.0831
     64 H26        -0.6211    3.4755   -1.7762 H         1 <0>         0.0704
     65 H27        -0.3254    3.8127   -3.4698 H         1 <0>         0.0718
     66 H28         7.6494    5.4516   -0.0948 H         1 <0>         0.0606
     67 H29         8.8216    4.2418    0.4157 H         1 <0>         0.0458
     68 H30         8.0356    6.7709    1.9287 H         1 <0>         0.0375
     69 H31         9.1825    5.5824    2.5383 H         1 <0>         0.0392
     70 H32         6.2171    4.9575    1.8728 H         1 <0>         0.0606
     71 H33         7.3929    3.7874    2.4660 H         1 <0>         0.0579
     72 H34         9.5108    7.2416   -0.0285 H         1 <0>         0.0571
     73 H35        10.6706    6.0303    0.5375 H         1 <0>         0.0503
     74 H36         7.0421    2.3587    0.4881 H         1 <0>         0.0993
     75 H37         0.7364    6.6054   -0.5173 H         1 <0>         0.3700
     76 H38        -0.0926    5.1211   -0.1128 H         1 <0>         0.3660
     77 H39        11.2163    8.3531    1.3147 H         1 <0>         0.3465
     78 H40        10.4498    7.6340    2.7108 H         1 <0>         0.3446
     79 H41         3.4989    0.9899    2.6717 H         1 <0>         0.3148
     80 H42         6.1527    3.1949   -1.3636 H         1 <0>         0.3220
@<TRIPOS>BOND
     1    1    2 ar
     2    1    3 ar
     3    2    4 ar
     4    3    5 ar
     5    4    6 ar
     6    5    6 ar
     7    6   23 1
     8    7   22 1
     9    7   29 am
    10    7   35 2
    11    8    9 1
    12    8   28 1
    13    8   36 2
    14    9   33 am
    15    9   37 2
    16   10   20 1
    17   10   34 am
    18   10   38 2
    19   11   12 1
    20   11   13 1
    21   12   14 1
    22   13   15 1
    23   14   21 1
    24   15   21 1
    25   16   18 1
    26   16   20 1
    27   17   19 1
    28   17   22 1
    29   18   30 1
    30   19   30 1
    31   20   29 1
    32   21   33 1
    33   22   23 1
    34   22   31 1
    35   24   25 1
    36   24   26 1
    37   25   27 1
    38   26   28 1
    39   27   32 1
    40   28   34 1
    41   29   30 1
    42    1   39 1
    43    2   40 1
    44    3   41 1
    45    4   42 1
    46    5   43 1
    47   11   44 1
    48   11   45 1
    49   12   46 1
    50   12   47 1
    51   13   48 1
    52   13   49 1
    53   14   50 1
    54   14   51 1
    55   15   52 1
    56   15   53 1
    57   16   54 1
    58   16   55 1
    59   17   56 1
    60   17   57 1
    61   18   58 1
    62   18   59 1
    63   19   60 1
    64   19   61 1
    65   20   62 1
    66   21   63 1
    67   23   64 1
    68   23   65 1
    69   24   66 1
    70   24   67 1
    71   25   68 1
    72   25   69 1
    73   26   70 1
    74   26   71 1
    75   27   72 1
    76   27   73 1
    77   28   74 1
    78   31   75 1
    79   31   76 1
    80   32   77 1
    81   32   78 1
    82   33   79 1
    83   34   80 1
@<TRIPOS>MOLECULE
1a46_ligand_308
   80    83     0     0     0
SMALL
USER_CHARGES

mmff94s_NoEstat = 88.26
@<TRIPOS>ATOM
      1 C1         11.2165    5.1344   -9.5699 C.ar      1 <0>        -0.1300
      2 C2         11.8039    4.7828   -8.3546 C.ar      1 <0>        -0.1323
      3 C3          9.9328    5.6797   -9.5922 C.ar      1 <0>        -0.1309
      4 C4         11.1077    4.9765   -7.1616 C.ar      1 <0>        -0.1275
      5 C5          9.2366    5.8734   -8.3991 C.ar      1 <0>        -0.1272
      6 C6          9.8285    5.5206   -7.1916 C.ar      1 <0>        -0.0843
      7 C7          7.4784    4.7027   -4.2310 C.2       1 <0>         0.6709
      8 C8          5.2358    2.3798    1.5634 C.2       1 <0>         0.4867
      9 C9          4.0737    1.7586    0.8450 C.2       1 <0>         0.5883
     10 C10         6.2126    3.1256   -1.7338 C.2       1 <0>         0.6572
     11 C11         1.7926   -2.0333    3.0392 C.3       1 <0>        -0.0802
     12 C12         2.8691   -2.0092    1.9574 C.3       1 <0>        -0.0765
     13 C13         1.4148   -0.6275    3.4983 C.3       1 <0>        -0.0774
     14 C14         2.4660   -1.1175    0.7822 C.3       1 <0>        -0.0953
     15 C15         1.0147    0.2608    2.3194 C.3       1 <0>        -0.0906
     16 C16         4.3868    2.9365   -3.4414 C.3       1 <0>        -0.0871
     17 C17         7.2608    4.1580   -6.6868 C.3       1 <0>        -0.0716
     18 C18         5.0537    2.0131   -4.4592 C.3       1 <0>         0.1333
     19 C19         6.0339    3.3363   -6.2552 C.3       1 <0>         0.1246
     20 C20         5.5372    3.7637   -2.9085 C.3       1 <0>         0.0606
     21 C21         2.0813    0.3030    1.2170 C.3       1 <0>         0.1012
     22 C22         8.2469    4.4948   -5.5436 C.3       1 <0>         0.1554
     23 C23         9.0796    5.7289   -5.9083 C.3       1 <0>        -0.0356
     24 C24         8.0800    4.9598    0.7851 C.3       1 <0>        -0.0795
     25 C25         8.7880    6.0338    1.6192 C.3       1 <0>        -0.1203
     26 C26         6.9719    4.2276    1.5544 C.3       1 <0>        -0.0920
     27 C27         9.9095    6.7454    0.8629 C.3       1 <0>         0.1502
     28 C28         6.2906    3.1130    0.7514 C.3       1 <0>         0.0224
     29 N1          6.4904    3.7576   -4.0019 N.am      1 <0>        -0.3553
     30 N2          6.2438    2.7368   -4.9387 N.3       1 <0>        -0.4320
     31 N3          9.1632    3.3713   -5.2994 N.3       1 <0>        -0.9031
     32 N4         10.5470    7.7366    1.7233 N.3       1 <0>        -0.9068
     33 N5          3.2649    1.0281    1.6841 N.am      1 <0>        -0.5526
     34 N6          5.7762    3.5917   -0.5046 N.am      1 <0>        -0.5576
     35 O1          7.7368    5.6223   -3.4546 O.2       1 <0>        -0.6710
     36 O2          5.3022    2.1819    2.7699 O.2       1 <0>        -0.4901
     37 O3          3.9822    1.9394   -0.3582 O.2       1 <0>        -0.5902
     38 O4          7.0689    2.2691   -1.9210 O.2       1 <0>        -0.5833
     39 H1         11.7586    4.9835  -10.4989 H         1 <0>         0.1320
     40 H2         12.8034    4.3582   -8.3374 H         1 <0>         0.1324
     41 H3          9.4755    5.9533  -10.5385 H         1 <0>         0.1328
     42 H4         11.5733    4.6996   -6.2195 H         1 <0>         0.1324
     43 H5          8.2369    6.2989   -8.4262 H         1 <0>         0.1434
     44 H6          0.9001   -2.5398    2.6511 H         1 <0>         0.0405
     45 H7          2.1436   -2.6194    3.8961 H         1 <0>         0.0421
     46 H8          3.8122   -1.6516    2.3880 H         1 <0>         0.0362
     47 H9          3.0515   -3.0286    1.5983 H         1 <0>         0.0439
     48 H10         0.5852   -0.6849    4.2123 H         1 <0>         0.0350
     49 H11         2.2609   -0.1774    4.0315 H         1 <0>         0.0428
     50 H12         3.2898   -1.0805    0.0591 H         1 <0>         0.0663
     51 H13         1.6118   -1.5754    0.2674 H         1 <0>         0.0466
     52 H14         0.0770   -0.1178    1.8931 H         1 <0>         0.0493
     53 H15         0.8108    1.2743    2.6856 H         1 <0>         0.0520
     54 H16         3.6738    3.5897   -3.9595 H         1 <0>         0.0915
     55 H17         3.8488    2.3812   -2.6670 H         1 <0>         0.0601
     56 H18         7.7933    3.6252   -7.4865 H         1 <0>         0.0688
     57 H19         6.8963    5.0889   -7.1420 H         1 <0>         0.0630
     58 H20         5.3910    1.1000   -3.9542 H         1 <0>         0.0807
     59 H21         4.3651    1.7081   -5.2548 H         1 <0>         0.0380
     60 H22         5.1498    3.9888   -6.2523 H         1 <0>         0.0484
     61 H23         5.8493    2.5563   -7.0035 H         1 <0>         0.0697
     62 H24         5.2534    4.7844   -2.6367 H         1 <0>         0.0843
     63 H25         1.7044    0.8657    0.3566 H         1 <0>         0.0831
     64 H26         9.7736    5.9418   -5.0932 H         1 <0>         0.0704
     65 H27         8.4167    6.5923   -5.9906 H         1 <0>         0.0718
     66 H28         7.6494    5.4516   -0.0948 H         1 <0>         0.0606
     67 H29         8.8216    4.2418    0.4157 H         1 <0>         0.0458
     68 H30         8.0356    6.7709    1.9287 H         1 <0>         0.0375
     69 H31         9.1825    5.5824    2.5383 H         1 <0>         0.0392
     70 H32         6.2171    4.9575    1.8728 H         1 <0>         0.0606
     71 H33         7.3929    3.7874    2.4660 H         1 <0>         0.0579
     72 H34         9.5108    7.2416   -0.0285 H         1 <0>         0.0571
     73 H35        10.6706    6.0303    0.5375 H         1 <0>         0.0503
     74 H36         7.0421    2.3587    0.4881 H         1 <0>         0.0993
     75 H37         8.8040    2.4509   -5.4050 H         1 <0>         0.3700
     76 H38        10.0264    3.5689   -4.8487 H         1 <0>         0.3660
     77 H39        11.2163    8.3531    1.3147 H         1 <0>         0.3465
     78 H40        10.4498    7.6340    2.7108 H         1 <0>         0.3446
     79 H41         3.4989    0.9899    2.6717 H         1 <0>         0.3148
     80 H42         5.0545    4.3100   -0.4888 H         1 <0>         0.3220
@<TRIPOS>BOND
     1    1    2 ar
     2    1    3 ar
     3    2    4 ar
     4    3    5 ar
     5    4    6 ar
     6    5    6 ar
     7    6   23 1
     8    7   22 1
     9    7   29 am
    10    7   35 2
    11    8    9 1
    12    8   28 1
    13    8   36 2
    14    9   33 am
    15    9   37 2
    16   10   20 1
    17   10   34 am
    18   10   38 2
    19   11   12 1
    20   11   13 1
    21   12   14 1
    22   13   15 1
    23   14   21 1
    24   15   21 1
    25   16   18 1
    26   16   20 1
    27   17   19 1
    28   17   22 1
    29   18   30 1
    30   19   30 1
    31   20   29 1
    32   21   33 1
    33   22   23 1
    34   22   31 1
    35   24   25 1
    36   24   26 1
    37   25   27 1
    38   26   28 1
    39   27   32 1
    40   28   34 1
    41   29   30 1
    42    1   39 1
    43    2   40 1
    44    3   41 1
    45    4   42 1
    46    5   43 1
    47   11   44 1
    48   11   45 1
    49   12   46 1
    50   12   47 1
    51   13   48 1
    52   13   49 1
    53   14   50 1
    54   14   51 1
    55   15   52 1
    56   15   53 1
    57   16   54 1
    58   16   55 1
    59   17   56 1
    60   17   57 1
    61   18   58 1
    62   18   59 1
    63   19   60 1
    64   19   61 1
    65   20   62 1
    66   21   63 1
    67   23   64 1
    68   23   65 1
    69   24   66 1
    70   24   67 1
    71   25   68 1
    72   25   69 1
    73   26   70 1
    74   26   71 1
    75   27   72 1
    76   27   73 1
    77   28   74 1
    78   31   75 1
    79   31   76 1
    80   32   77 1
    81   32   78 1
    82   33   79 1
    83   34   80 1
@<TRIPOS>MOLECULE
1a46_ligand_309
   80    83     0     0     0
SMALL
USER_CHARGES

mmff94s_NoEstat = 88.29
@<TRIPOS>ATOM
      1 C1          5.9504   -1.3642  -10.1903 C.ar      1 <0>        -0.1300
      2 C2          6.6765   -1.8241   -9.0918 C.ar      1 <0>        -0.1323
      3 C3          5.5463   -0.0305  -10.2504 C.ar      1 <0>        -0.1309
      4 C4          6.9984   -0.9504   -8.0532 C.ar      1 <0>        -0.1275
      5 C5          5.8681    0.8432   -9.2119 C.ar      1 <0>        -0.1272
      6 C6          6.5921    0.3776   -8.1201 C.ar      1 <0>        -0.0843
      7 C7          6.1974    2.2868   -4.7798 C.2       1 <0>         0.6709
      8 C8          5.2358    2.3798    1.5634 C.2       1 <0>         0.4867
      9 C9          3.8230    2.3549    1.0577 C.2       1 <0>         0.5883
     10 C10         5.7098    2.8119   -1.6475 C.2       1 <0>         0.6572
     11 C11         0.9283    6.1987    2.1728 C.3       1 <0>        -0.0802
     12 C12         1.0626    4.8284    2.8318 C.3       1 <0>        -0.0765
     13 C13         1.8872    6.3615    0.9964 C.3       1 <0>        -0.0774
     14 C14         0.9098    3.6972    1.8142 C.3       1 <0>        -0.0953
     15 C15         1.7320    5.2267   -0.0170 C.3       1 <0>        -0.0906
     16 C16         3.6723    3.8570   -2.6681 C.3       1 <0>        -0.0871
     17 C17         4.4858    1.7161   -6.5463 C.3       1 <0>        -0.0716
     18 C18         2.9535    2.6133   -3.1875 C.3       1 <0>         0.1333
     19 C19         3.4659    2.2898   -5.5476 C.3       1 <0>         0.1246
     20 C20         5.1372    3.5153   -2.8394 C.3       1 <0>         0.0606
     21 C21         1.8637    3.8371    0.6204 C.3       1 <0>         0.1012
     22 C22         5.8481    1.3265   -5.9256 C.3       1 <0>         0.1554
     23 C23         6.9383    1.3175   -7.0029 C.3       1 <0>        -0.0356
     24 C24         7.6485    3.7409    2.8432 C.3       1 <0>        -0.0795
     25 C25         8.2774    4.8743    3.6620 C.3       1 <0>        -0.1203
     26 C26         6.9719    4.2276    1.5544 C.3       1 <0>        -0.0920
     27 C27         8.9284    4.3945    4.9589 C.3       1 <0>         0.1502
     28 C28         6.2906    3.1130    0.7514 C.3       1 <0>         0.0224
     29 N1          5.1345    2.5635   -3.9339 N.am      1 <0>        -0.3553
     30 N2          3.8653    2.0037   -4.1710 N.3       1 <0>        -0.4320
     31 N3          5.7803   -0.0123   -5.3216 N.3       1 <0>        -0.9031
     32 N4         10.0019    3.4511    4.6645 N.3       1 <0>        -0.9068
     33 N5          3.2455    3.6032    1.0456 N.am      1 <0>        -0.5526
     34 N6          5.7762    3.5917   -0.5046 N.am      1 <0>        -0.5576
     35 O1          7.3278    2.7504   -4.6301 O.2       1 <0>        -0.6710
     36 O2          5.4669    1.7271    2.5732 O.2       1 <0>        -0.4901
     37 O3          3.3466    1.2762    0.7444 O.2       1 <0>        -0.5902
     38 O4          6.0670    1.6440   -1.7490 O.2       1 <0>        -0.5833
     39 H1          5.6997   -2.0446  -10.9989 H         1 <0>         0.1320
     40 H2          6.9911   -2.8626   -9.0451 H         1 <0>         0.1324
     41 H3          4.9808    0.3274  -11.1059 H         1 <0>         0.1328
     42 H4          7.5644   -1.3176   -7.2012 H         1 <0>         0.1324
     43 H5          5.5489    1.8806   -9.2673 H         1 <0>         0.1434
     44 H6         -0.1023    6.3323    1.8214 H         1 <0>         0.0405
     45 H7          1.1162    6.9843    2.9134 H         1 <0>         0.0421
     46 H8          2.0393    4.7542    3.3252 H         1 <0>         0.0362
     47 H9          0.3035    4.7219    3.6152 H         1 <0>         0.0439
     48 H10         1.7025    7.3222    0.5024 H         1 <0>         0.0350
     49 H11         2.9190    6.3892    1.3671 H         1 <0>         0.0428
     50 H12         1.0730    2.7362    2.3169 H         1 <0>         0.0663
     51 H13        -0.1236    3.6910    1.4448 H         1 <0>         0.0466
     52 H14         0.7459    5.3084   -0.4918 H         1 <0>         0.0493
     53 H15         2.4781    5.3493   -0.8115 H         1 <0>         0.0520
     54 H16         3.4181    4.7133   -3.3051 H         1 <0>         0.0915
     55 H17         3.3944    4.0971   -1.6373 H         1 <0>         0.0601
     56 H18         4.0497    0.8441   -7.0524 H         1 <0>         0.0688
     57 H19         4.6431    2.4675   -7.3320 H         1 <0>         0.0630
     58 H20         2.8170    1.9026   -2.3635 H         1 <0>         0.0807
     59 H21         1.9588    2.8453   -3.5837 H         1 <0>         0.0380
     60 H22         3.3744    3.3723   -5.7123 H         1 <0>         0.0484
     61 H23         2.4818    1.8533   -5.7569 H         1 <0>         0.0697
     62 H24         5.7646    4.3810   -3.0694 H         1 <0>         0.0843
     63 H25         1.6435    3.0645   -0.1238 H         1 <0>         0.0831
     64 H26         7.8868    1.0311   -6.5450 H         1 <0>         0.0704
     65 H27         7.0672    2.3317   -7.3854 H         1 <0>         0.0718
     66 H28         8.4445    3.0306    2.5915 H         1 <0>         0.0606
     67 H29         6.9275    3.2007    3.4679 H         1 <0>         0.0458
     68 H30         9.0354    5.3625    3.0356 H         1 <0>         0.0375
     69 H31         7.5157    5.6329    3.8824 H         1 <0>         0.0392
     70 H32         7.7210    4.7221    0.9235 H         1 <0>         0.0606
     71 H33         6.2174    4.9831    1.8035 H         1 <0>         0.0579
     72 H34         8.1846    3.9091    5.6001 H         1 <0>         0.0571
     73 H35         9.3517    5.2370    5.5137 H         1 <0>         0.0503
     74 H36         7.0421    2.3587    0.4881 H         1 <0>         0.0993
     75 H37         4.9287   -0.2795   -4.8849 H         1 <0>         0.3700
     76 H38         6.6336   -0.5056   -5.1950 H         1 <0>         0.3660
     77 H39        10.4299    2.9725    5.4279 H         1 <0>         0.3465
     78 H40        10.4049    3.4672    3.7521 H         1 <0>         0.3446
     79 H41         3.8022    4.3983    1.3448 H         1 <0>         0.3148
     80 H42         5.4441    4.5531   -0.5557 H         1 <0>         0.3220
@<TRIPOS>BOND
     1    1    2 ar
     2    1    3 ar
     3    2    4 ar
     4    3    5 ar
     5    4    6 ar
     6    5    6 ar
     7    6   23 1
     8    7   22 1
     9    7   29 am
    10    7   35 2
    11    8    9 1
    12    8   28 1
    13    8   36 2
    14    9   33 am
    15    9   37 2
    16   10   20 1
    17   10   34 am
    18   10   38 2
    19   11   12 1
    20   11   13 1
    21   12   14 1
    22   13   15 1
    23   14   21 1
    24   15   21 1
    25   16   18 1
    26   16   20 1
    27   17   19 1
    28   17   22 1
    29   18   30 1
    30   19   30 1
    31   20   29 1
    32   21   33 1
    33   22   23 1
    34   22   31 1
    35   24   25 1
    36   24   26 1
    37   25   27 1
    38   26   28 1
    39   27   32 1
    40   28   34 1
    41   29   30 1
    42    1   39 1
    43    2   40 1
    44    3   41 1
    45    4   42 1
    46    5   43 1
    47   11   44 1
    48   11   45 1
    49   12   46 1
    50   12   47 1
    51   13   48 1
    52   13   49 1
    53   14   50 1
    54   14   51 1
    55   15   52 1
    56   15   53 1
    57   16   54 1
    58   16   55 1
    59   17   56 1
    60   17   57 1
    61   18   58 1
    62   18   59 1
    63   19   60 1
    64   19   61 1
    65   20   62 1
    66   21   63 1
    67   23   64 1
    68   23   65 1
    69   24   66 1
    70   24   67 1
    71   25   68 1
    72   25   69 1
    73   26   70 1
    74   26   71 1
    75   27   72 1
    76   27   73 1
    77   28   74 1
    78   31   75 1
    79   31   76 1
    80   32   77 1
    81   32   78 1
    82   33   79 1
    83   34   80 1
@<TRIPOS>MOLECULE
1a46_ligand_310
   80    83     0     0     0
SMALL
USER_CHARGES

mmff94s_NoEstat = 88.29
@<TRIPOS>ATOM
      1 C1         -6.9230    5.5242    0.0960 C.ar      1 <0>        -0.1300
      2 C2         -5.5676    5.7959    0.2823 C.ar      1 <0>        -0.1323
      3 C3         -7.3195    4.5504   -0.8207 C.ar      1 <0>        -0.1309
      4 C4         -4.6088    5.0941   -0.4482 C.ar      1 <0>        -0.1275
      5 C5         -6.3607    3.8486   -1.5512 C.ar      1 <0>        -0.1272
      6 C6         -5.0116    4.1250   -1.3602 C.ar      1 <0>        -0.0843
      7 C7         -2.6002    3.3123   -4.2727 C.2       1 <0>         0.6709
      8 C8          2.7796    3.2097   -6.1637 C.2       1 <0>         0.4867
      9 C9          2.2829    2.0299   -5.3801 C.2       1 <0>         0.5883
     10 C10        -0.2772    3.6966   -6.4593 C.2       1 <0>         0.6572
     11 C11         1.5839   -3.3211   -5.6848 C.3       1 <0>        -0.0802
     12 C12         0.4244   -2.4952   -6.2347 C.3       1 <0>        -0.0765
     13 C13         2.3480   -2.5670   -4.6002 C.3       1 <0>        -0.0774
     14 C14         0.8909   -1.1259   -6.7260 C.3       1 <0>        -0.0953
     15 C15         2.8173   -1.1981   -5.0901 C.3       1 <0>        -0.0906
     16 C16        -2.3224    3.5471   -7.9015 C.3       1 <0>        -0.0871
     17 C17        -4.9405    4.2595   -4.3066 C.3       1 <0>        -0.0716
     18 C18        -3.0196    4.8544   -7.5301 C.3       1 <0>         0.1333
     19 C19        -4.6999    4.4350   -5.8160 C.3       1 <0>         0.1246
     20 C20        -1.6533    3.1250   -6.6108 C.3       1 <0>         0.0606
     21 C21         1.6479   -0.3676   -5.6301 C.3       1 <0>         0.1012
     22 C22        -3.6553    4.0808   -3.4645 C.3       1 <0>         0.1554
     23 C23        -3.9801    3.3700   -2.1460 C.3       1 <0>        -0.0356
     24 C24         3.6080    5.6033   -7.8654 C.3       1 <0>        -0.0795
     25 C25         3.7321    7.1143   -8.0937 C.3       1 <0>        -0.1203
     26 C26         2.1570    5.1335   -7.6933 C.3       1 <0>        -0.0920
     27 C27         3.0199    7.5957   -9.3574 C.3       1 <0>         0.1502
     28 C28         2.0196    3.6328   -7.4097 C.3       1 <0>         0.0224
     29 N1         -2.4817    3.7343   -5.5879 N.am      1 <0>        -0.3553
     30 N2         -3.3016    4.7634   -6.0871 N.3       1 <0>        -0.4320
     31 N3         -3.0521    5.3850   -3.1534 N.3       1 <0>        -0.9031
     32 N4          3.1970    9.0352   -9.5179 N.3       1 <0>        -0.9068
     33 N5          2.1424    0.9032   -6.1564 N.am      1 <0>        -0.5526
     34 N6          0.6426    3.2153   -7.3763 N.am      1 <0>        -0.5576
     35 O1         -1.9182    2.4140   -3.7798 O.2       1 <0>        -0.6710
     36 O2          3.8302    3.7133   -5.7870 O.2       1 <0>        -0.4901
     37 O3          2.0451    2.1901   -4.1942 O.2       1 <0>        -0.5902
     38 O4         -0.0579    4.5177   -5.5765 O.2       1 <0>        -0.5833
     39 H1         -7.6696    6.0707    0.6647 H         1 <0>         0.1320
     40 H2         -5.2590    6.5541    0.9960 H         1 <0>         0.1324
     41 H3         -8.3749    4.3390   -0.9657 H         1 <0>         0.1328
     42 H4         -3.5551    5.3126   -0.2965 H         1 <0>         0.1324
     43 H5         -6.6790    3.0917   -2.2632 H         1 <0>         0.1434
     44 H6          1.2042   -4.2657   -5.2794 H         1 <0>         0.0405
     45 H7          2.2691   -3.5761   -6.5026 H         1 <0>         0.0421
     46 H8         -0.0570   -3.0372   -7.0565 H         1 <0>         0.0362
     47 H9         -0.3330   -2.3624   -5.4523 H         1 <0>         0.0439
     48 H10         1.7042   -2.4383   -3.7214 H         1 <0>         0.0350
     49 H11         3.2122   -3.1594   -4.2790 H         1 <0>         0.0428
     50 H12         1.5345   -1.2546   -7.6063 H         1 <0>         0.0663
     51 H13         0.0255   -0.5396   -7.0578 H         1 <0>         0.0466
     52 H14         3.3092   -0.6626   -4.2690 H         1 <0>         0.0493
     53 H15         3.5759   -1.3314   -5.8726 H         1 <0>         0.0520
     54 H16        -3.0774    2.8030   -8.1842 H         1 <0>         0.0915
     55 H17        -1.6271    3.6703   -8.7375 H         1 <0>         0.0601
     56 H18        -5.5127    5.1168   -3.9266 H         1 <0>         0.0688
     57 H19        -5.5913    3.3849   -4.1715 H         1 <0>         0.0630
     58 H20        -2.3297    5.6917   -7.6901 H         1 <0>         0.0807
     59 H21        -3.9050    5.0413   -8.1478 H         1 <0>         0.0380
     60 H22        -4.9933    3.5117   -6.3344 H         1 <0>         0.0484
     61 H23        -5.3567    5.2300   -6.1889 H         1 <0>         0.0697
     62 H24        -1.5977    2.0405   -6.4809 H         1 <0>         0.0843
     63 H25         0.9628   -0.1158   -4.8123 H         1 <0>         0.0831
     64 H26        -3.0622    3.2636   -1.5651 H         1 <0>         0.0704
     65 H27        -4.3327    2.3604   -2.3649 H         1 <0>         0.0718
     66 H28         4.0550    5.0981   -8.7294 H         1 <0>         0.0606
     67 H29         4.2035    5.3200   -6.9896 H         1 <0>         0.0458
     68 H30         3.3040    7.6236   -7.2205 H         1 <0>         0.0375
     69 H31         4.7929    7.3929   -8.1313 H         1 <0>         0.0392
     70 H32         1.5916    5.3838   -8.5996 H         1 <0>         0.0606
     71 H33         1.6928    5.6841   -6.8667 H         1 <0>         0.0579
     72 H34         1.9504    7.3658   -9.3013 H         1 <0>         0.0571
     73 H35         3.4248    7.0972  -10.2430 H         1 <0>         0.0503
     74 H36         2.4714    3.0747   -8.2388 H         1 <0>         0.0993
     75 H37        -3.1119    6.0979   -3.8428 H         1 <0>         0.3700
     76 H38        -2.4431    5.4370   -2.3699 H         1 <0>         0.3660
     77 H39         2.6832    9.4946  -10.2389 H         1 <0>         0.3465
     78 H40         3.9627    9.4698   -9.0489 H         1 <0>         0.3446
     79 H41         2.3934    0.9566   -7.1391 H         1 <0>         0.3148
     80 H42         0.3285    2.5310   -8.0620 H         1 <0>         0.3220
@<TRIPOS>BOND
     1    1    2 ar
     2    1    3 ar
     3    2    4 ar
     4    3    5 ar
     5    4    6 ar
     6    5    6 ar
     7    6   23 1
     8    7   22 1
     9    7   29 am
    10    7   35 2
    11    8    9 1
    12    8   28 1
    13    8   36 2
    14    9   33 am
    15    9   37 2
    16   10   20 1
    17   10   34 am
    18   10   38 2
    19   11   12 1
    20   11   13 1
    21   12   14 1
    22   13   15 1
    23   14   21 1
    24   15   21 1
    25   16   18 1
    26   16   20 1
    27   17   19 1
    28   17   22 1
    29   18   30 1
    30   19   30 1
    31   20   29 1
    32   21   33 1
    33   22   23 1
    34   22   31 1
    35   24   25 1
    36   24   26 1
    37   25   27 1
    38   26   28 1
    39   27   32 1
    40   28   34 1
    41   29   30 1
    42    1   39 1
    43    2   40 1
    44    3   41 1
    45    4   42 1
    46    5   43 1
    47   11   44 1
    48   11   45 1
    49   12   46 1
    50   12   47 1
    51   13   48 1
    52   13   49 1
    53   14   50 1
    54   14   51 1
    55   15   52 1
    56   15   53 1
    57   16   54 1
    58   16   55 1
    59   17   56 1
    60   17   57 1
    61   18   58 1
    62   18   59 1
    63   19   60 1
    64   19   61 1
    65   20   62 1
    66   21   63 1
    67   23   64 1
    68   23   65 1
    69   24   66 1
    70   24   67 1
    71   25   68 1
    72   25   69 1
    73   26   70 1
    74   26   71 1
    75   27   72 1
    76   27   73 1
    77   28   74 1
    78   31   75 1
    79   31   76 1
    80   32   77 1
    81   32   78 1
    82   33   79 1
    83   34   80 1
@<TRIPOS>MOLECULE
1a46_ligand_311
   80    83     0     0     0
SMALL
USER_CHARGES

mmff94s_NoEstat = 88.31
@<TRIPOS>ATOM
      1 C1          1.7409   12.3935   -1.5361 C.ar      1 <0>        -0.1300
      2 C2          2.2430   11.8090   -0.3734 C.ar      1 <0>        -0.1323
      3 C3          1.4857   11.6057   -2.6586 C.ar      1 <0>        -0.1309
      4 C4          2.4901   10.4368   -0.3331 C.ar      1 <0>        -0.1275
      5 C5          1.7328   10.2334   -2.6183 C.ar      1 <0>        -0.1272
      6 C6          2.2334    9.6580   -1.4559 C.ar      1 <0>        -0.0843
      7 C7          4.2075    6.3518   -1.8158 C.2       1 <0>         0.6709
      8 C8          5.2358    2.3798    1.5634 C.2       1 <0>         0.4867
      9 C9          4.0737    1.7586    0.8450 C.2       1 <0>         0.5883
     10 C10         6.5648    4.1956   -1.4701 C.2       1 <0>         0.6572
     11 C11         1.7926   -2.0333    3.0392 C.3       1 <0>        -0.0802
     12 C12         2.8691   -2.0092    1.9574 C.3       1 <0>        -0.0765
     13 C13         1.4148   -0.6275    3.4983 C.3       1 <0>        -0.0774
     14 C14         2.4660   -1.1175    0.7822 C.3       1 <0>        -0.0953
     15 C15         1.0147    0.2608    2.3194 C.3       1 <0>        -0.0906
     16 C16         6.7154    4.7360   -3.9137 C.3       1 <0>        -0.0871
     17 C17         4.1811    8.4057   -3.2842 C.3       1 <0>        -0.0716
     18 C18         7.2083    6.1802   -3.8482 C.3       1 <0>         0.1333
     19 C19         5.3192    7.7064   -4.0474 C.3       1 <0>         0.1246
     20 C20         5.8189    4.6139   -2.6998 C.3       1 <0>         0.0606
     21 C21         2.0813    0.3030    1.2170 C.3       1 <0>         0.1012
     22 C22         3.9302    7.8611   -1.8583 C.3       1 <0>         0.1554
     23 C23         2.4991    8.1819   -1.4126 C.3       1 <0>        -0.0356
     24 C24         6.0158    5.3379    2.0114 C.3       1 <0>        -0.0795
     25 C25         6.7209    6.4716    2.7653 C.3       1 <0>        -0.1203
     26 C26         6.9719    4.2276    1.5544 C.3       1 <0>        -0.0920
     27 C27         5.7742    7.5909    3.1979 C.3       1 <0>         0.1502
     28 C28         6.2906    3.1130    0.7514 C.3       1 <0>         0.0224
     29 N1          5.3643    5.9735   -2.4795 N.am      1 <0>        -0.3553
     30 N2          6.1593    6.9309   -3.1367 N.3       1 <0>        -0.4320
     31 N3          4.8633    8.4685   -0.8981 N.3       1 <0>        -0.9031
     32 N4          6.5168    8.6391    3.8900 N.3       1 <0>        -0.9068
     33 N5          3.2649    1.0281    1.6841 N.am      1 <0>        -0.5526
     34 N6          5.7762    3.5917   -0.5046 N.am      1 <0>        -0.5576
     35 O1          3.4676    5.5621   -1.2293 O.2       1 <0>        -0.6710
     36 O2          5.3022    2.1819    2.7699 O.2       1 <0>        -0.4901
     37 O3          3.9822    1.9394   -0.3582 O.2       1 <0>        -0.5902
     38 O4          7.7705    4.4014   -1.3956 O.2       1 <0>        -0.5833
     39 H1          1.5486   13.4619   -1.5674 H         1 <0>         0.1320
     40 H2          2.4416   12.4225    0.5006 H         1 <0>         0.1324
     41 H3          1.0949   12.0609   -3.5639 H         1 <0>         0.1328
     42 H4          2.8813    9.9902    0.5771 H         1 <0>         0.1324
     43 H5          1.5311    9.6276   -3.4978 H         1 <0>         0.1434
     44 H6          0.9001   -2.5398    2.6511 H         1 <0>         0.0405
     45 H7          2.1436   -2.6194    3.8961 H         1 <0>         0.0421
     46 H8          3.8122   -1.6516    2.3880 H         1 <0>         0.0362
     47 H9          3.0515   -3.0286    1.5983 H         1 <0>         0.0439
     48 H10         0.5852   -0.6849    4.2123 H         1 <0>         0.0350
     49 H11         2.2609   -0.1774    4.0315 H         1 <0>         0.0428
     50 H12         3.2898   -1.0805    0.0591 H         1 <0>         0.0663
     51 H13         1.6118   -1.5754    0.2674 H         1 <0>         0.0466
     52 H14         0.0770   -0.1178    1.8931 H         1 <0>         0.0493
     53 H15         0.8108    1.2743    2.6856 H         1 <0>         0.0520
     54 H16         6.1203    4.5986   -4.8250 H         1 <0>         0.0915
     55 H17         7.5395    4.0162   -3.9259 H         1 <0>         0.0601
     56 H18         4.3839    9.4843   -3.2353 H         1 <0>         0.0688
     57 H19         3.2652    8.3026   -3.8819 H         1 <0>         0.0630
     58 H20         8.1249    6.2239   -3.2478 H         1 <0>         0.0807
     59 H21         7.4504    6.5803   -4.8390 H         1 <0>         0.0380
     60 H22         4.8852    7.0622   -4.8247 H         1 <0>         0.0484
     61 H23         5.9181    8.4662   -4.5637 H         1 <0>         0.0697
     62 H24         4.9753    3.9333   -2.8455 H         1 <0>         0.0843
     63 H25         1.7044    0.8657    0.3566 H         1 <0>         0.0831
     64 H26         2.3479    7.7977   -0.4022 H         1 <0>         0.0704
     65 H27         1.7988    7.6502   -2.0594 H         1 <0>         0.0718
     66 H28         5.2579    4.9142    2.6804 H         1 <0>         0.0606
     67 H29         5.4809    5.7546    1.1500 H         1 <0>         0.0458
     68 H30         7.2000    6.0392    3.6534 H         1 <0>         0.0375
     69 H31         7.5258    6.8807    2.1417 H         1 <0>         0.0392
     70 H32         7.4599    3.7926    2.4354 H         1 <0>         0.0606
     71 H33         7.7645    4.6634    0.9347 H         1 <0>         0.0579
     72 H34         4.9986    7.1962    3.8630 H         1 <0>         0.0571
     73 H35         5.2784    8.0349    2.3297 H         1 <0>         0.0503
     74 H36         7.0421    2.3587    0.4881 H         1 <0>         0.0993
     75 H37         5.7856    8.6648   -1.2112 H         1 <0>         0.3700
     76 H38         4.6041    8.4681    0.0612 H         1 <0>         0.3660
     77 H39         5.9996    9.3711    4.3277 H         1 <0>         0.3465
     78 H40         7.4997    8.7018    3.7315 H         1 <0>         0.3446
     79 H41         3.4989    0.9899    2.6717 H         1 <0>         0.3148
     80 H42         4.7816    3.4809   -0.6931 H         1 <0>         0.3220
@<TRIPOS>BOND
     1    1    2 ar
     2    1    3 ar
     3    2    4 ar
     4    3    5 ar
     5    4    6 ar
     6    5    6 ar
     7    6   23 1
     8    7   22 1
     9    7   29 am
    10    7   35 2
    11    8    9 1
    12    8   28 1
    13    8   36 2
    14    9   33 am
    15    9   37 2
    16   10   20 1
    17   10   34 am
    18   10   38 2
    19   11   12 1
    20   11   13 1
    21   12   14 1
    22   13   15 1
    23   14   21 1
    24   15   21 1
    25   16   18 1
    26   16   20 1
    27   17   19 1
    28   17   22 1
    29   18   30 1
    30   19   30 1
    31   20   29 1
    32   21   33 1
    33   22   23 1
    34   22   31 1
    35   24   25 1
    36   24   26 1
    37   25   27 1
    38   26   28 1
    39   27   32 1
    40   28   34 1
    41   29   30 1
    42    1   39 1
    43    2   40 1
    44    3   41 1
    45    4   42 1
    46    5   43 1
    47   11   44 1
    48   11   45 1
    49   12   46 1
    50   12   47 1
    51   13   48 1
    52   13   49 1
    53   14   50 1
    54   14   51 1
    55   15   52 1
    56   15   53 1
    57   16   54 1
    58   16   55 1
    59   17   56 1
    60   17   57 1
    61   18   58 1
    62   18   59 1
    63   19   60 1
    64   19   61 1
    65   20   62 1
    66   21   63 1
    67   23   64 1
    68   23   65 1
    69   24   66 1
    70   24   67 1
    71   25   68 1
    72   25   69 1
    73   26   70 1
    74   26   71 1
    75   27   72 1
    76   27   73 1
    77   28   74 1
    78   31   75 1
    79   31   76 1
    80   32   77 1
    81   32   78 1
    82   33   79 1
    83   34   80 1
@<TRIPOS>MOLECULE
1a46_ligand_312
   80    83     0     0     0
SMALL
USER_CHARGES

mmff94s_NoEstat = 88.37
@<TRIPOS>ATOM
      1 C1         -7.7455    8.1925  -11.7378 C.ar      1 <0>        -0.1300
      2 C2         -6.4538    8.7176  -11.7053 C.ar      1 <0>        -0.1323
      3 C3         -8.1013    7.1613  -10.8684 C.ar      1 <0>        -0.1309
      4 C4         -5.5176    8.2116  -10.8036 C.ar      1 <0>        -0.1275
      5 C5         -7.1651    6.6552   -9.9666 C.ar      1 <0>        -0.1272
      6 C6         -5.8794    7.1836   -9.9401 C.ar      1 <0>        -0.0843
      7 C7         -3.0518    4.9149   -8.5929 C.2       1 <0>         0.6709
      8 C8          2.7796    3.2097   -6.1637 C.2       1 <0>         0.4867
      9 C9          4.2189    2.8058   -6.2975 C.2       1 <0>         0.5883
     10 C10        -0.2306    3.3845   -8.4382 C.2       1 <0>         0.6572
     11 C11         9.2399    4.6670   -5.5627 C.3       1 <0>        -0.0802
     12 C12         8.6483    4.1468   -6.8697 C.3       1 <0>        -0.0765
     13 C13         8.6396    3.9588   -4.3515 C.3       1 <0>        -0.0774
     14 C14         7.1228    4.2300   -6.8703 C.3       1 <0>        -0.0953
     15 C15         7.1141    4.0425   -4.3490 C.3       1 <0>        -0.0906
     16 C16        -1.8342    1.4799   -8.7324 C.3       1 <0>        -0.0871
     17 C17        -5.0487    4.3542  -10.0327 C.3       1 <0>        -0.0716
     18 C18        -2.3033    1.7312  -10.1641 C.3       1 <0>         0.1333
     19 C19        -4.4074    2.9598  -10.1390 C.3       1 <0>         0.1246
     20 C20        -1.6152    2.8736   -8.1831 C.3       1 <0>         0.0606
     21 C21         6.5237    3.5079   -5.6584 C.3       1 <0>         0.1012
     22 C22        -4.0838    5.4758   -9.5814 C.3       1 <0>         0.1554
     23 C23        -4.8724    6.6393   -8.9701 C.3       1 <0>        -0.0356
     24 C24         3.6080    5.6033   -7.8654 C.3       1 <0>        -0.0795
     25 C25         3.7321    7.1143   -8.0937 C.3       1 <0>        -0.1203
     26 C26         2.1570    5.1335   -7.6933 C.3       1 <0>        -0.0920
     27 C27         5.1782    7.5875   -8.2387 C.3       1 <0>         0.1502
     28 C28         2.0196    3.6328   -7.4097 C.3       1 <0>         0.0224
     29 N1         -2.5211    3.6904   -8.9681 N.am      1 <0>        -0.3553
     30 N2         -2.9489    3.0553  -10.1488 N.3       1 <0>        -0.4320
     31 N3         -3.3108    5.9870  -10.7228 N.3       1 <0>        -0.9031
     32 N4          5.2178    9.0330   -8.4337 N.3       1 <0>        -0.9068
     33 N5          5.0712    3.6706   -5.6514 N.am      1 <0>        -0.5526
     34 N6          0.6426    3.2153   -7.3763 N.am      1 <0>        -0.5576
     35 O1         -2.7244    5.5164   -7.5701 O.2       1 <0>        -0.6710
     36 O2          2.3266    3.2509   -5.0269 O.2       1 <0>        -0.4901
     37 O3          4.4746    1.8096   -6.9540 O.2       1 <0>        -0.5902
     38 O4          0.0350    3.8958   -9.5198 O.2       1 <0>        -0.5833
     39 H1         -8.4745    8.5865  -12.4399 H         1 <0>         0.1320
     40 H2         -6.1769    9.5206  -12.3823 H         1 <0>         0.1324
     41 H3         -9.1071    6.7523  -10.8939 H         1 <0>         0.1328
     42 H4         -4.5135    8.6269  -10.7854 H         1 <0>         0.1324
     43 H5         -7.4512    5.8517   -9.2932 H         1 <0>         0.1434
     44 H6         10.3270    4.5289   -5.5692 H         1 <0>         0.0405
     45 H7          9.0546    5.7452   -5.4829 H         1 <0>         0.0421
     46 H8          9.0491    4.7235   -7.7109 H         1 <0>         0.0362
     47 H9          8.9560    3.1048   -7.0209 H         1 <0>         0.0439
     48 H10         8.9466    2.9057   -4.3541 H         1 <0>         0.0350
     49 H11         9.0343    4.4042   -3.4313 H         1 <0>         0.0428
     50 H12         6.8154    5.2841   -6.8688 H         1 <0>         0.0663
     51 H13         6.7309    3.7942   -7.7974 H         1 <0>         0.0466
     52 H14         6.7161    3.4744   -3.4994 H         1 <0>         0.0493
     53 H15         6.8065    5.0855   -4.1968 H         1 <0>         0.0520
     54 H16        -2.6369    0.9859   -8.1710 H         1 <0>         0.0915
     55 H17        -0.9427    0.8466   -8.6926 H         1 <0>         0.0601
     56 H18        -5.4989    4.6229  -10.9981 H         1 <0>         0.0688
     57 H19        -5.8853    4.2840   -9.3243 H         1 <0>         0.0630
     58 H20        -1.4316    1.7851  -10.8273 H         1 <0>         0.0807
     59 H21        -2.9449    0.9252  -10.5369 H         1 <0>         0.0380
     60 H22        -4.7542    2.3419   -9.2992 H         1 <0>         0.0484
     61 H23        -4.7632    2.4757  -11.0564 H         1 <0>         0.0697
     62 H24        -1.8289    2.9613   -7.1141 H         1 <0>         0.0843
     63 H25         6.7120    2.4309   -5.7378 H         1 <0>         0.0831
     64 H26        -4.1735    7.4215   -8.6684 H         1 <0>         0.0704
     65 H27        -5.3683    6.2928   -8.0614 H         1 <0>         0.0718
     66 H28         4.0550    5.0981   -8.7294 H         1 <0>         0.0606
     67 H29         4.2035    5.3200   -6.9896 H         1 <0>         0.0458
     68 H30         3.1762    7.3642   -9.0068 H         1 <0>         0.0375
     69 H31         3.2423    7.6502   -7.2709 H         1 <0>         0.0392
     70 H32         1.5916    5.3838   -8.5996 H         1 <0>         0.0606
     71 H33         1.6928    5.6841   -6.8667 H         1 <0>         0.0579
     72 H34         5.6557    7.0931   -9.0916 H         1 <0>         0.0571
     73 H35         5.7562    7.3441   -7.3424 H         1 <0>         0.0503
     74 H36         2.4714    3.0747   -8.2388 H         1 <0>         0.0993
     75 H37        -3.0417    5.3386  -11.4260 H         1 <0>         0.3700
     76 H38        -2.9200    6.8973  -10.6453 H         1 <0>         0.3660
     77 H39         6.0938    9.4532   -8.6597 H         1 <0>         0.3465
     78 H40         4.4297    9.5689   -8.1390 H         1 <0>         0.3446
     79 H41         4.6735    4.4573   -5.1469 H         1 <0>         0.3148
     80 H42         0.2924    2.7728   -6.5286 H         1 <0>         0.3220
@<TRIPOS>BOND
     1    1    2 ar
     2    1    3 ar
     3    2    4 ar
     4    3    5 ar
     5    4    6 ar
     6    5    6 ar
     7    6   23 1
     8    7   22 1
     9    7   29 am
    10    7   35 2
    11    8    9 1
    12    8   28 1
    13    8   36 2
    14    9   33 am
    15    9   37 2
    16   10   20 1
    17   10   34 am
    18   10   38 2
    19   11   12 1
    20   11   13 1
    21   12   14 1
    22   13   15 1
    23   14   21 1
    24   15   21 1
    25   16   18 1
    26   16   20 1
    27   17   19 1
    28   17   22 1
    29   18   30 1
    30   19   30 1
    31   20   29 1
    32   21   33 1
    33   22   23 1
    34   22   31 1
    35   24   25 1
    36   24   26 1
    37   25   27 1
    38   26   28 1
    39   27   32 1
    40   28   34 1
    41   29   30 1
    42    1   39 1
    43    2   40 1
    44    3   41 1
    45    4   42 1
    46    5   43 1
    47   11   44 1
    48   11   45 1
    49   12   46 1
    50   12   47 1
    51   13   48 1
    52   13   49 1
    53   14   50 1
    54   14   51 1
    55   15   52 1
    56   15   53 1
    57   16   54 1
    58   16   55 1
    59   17   56 1
    60   17   57 1
    61   18   58 1
    62   18   59 1
    63   19   60 1
    64   19   61 1
    65   20   62 1
    66   21   63 1
    67   23   64 1
    68   23   65 1
    69   24   66 1
    70   24   67 1
    71   25   68 1
    72   25   69 1
    73   26   70 1
    74   26   71 1
    75   27   72 1
    76   27   73 1
    77   28   74 1
    78   31   75 1
    79   31   76 1
    80   32   77 1
    81   32   78 1
    82   33   79 1
    83   34   80 1
@<TRIPOS>MOLECULE
1a46_ligand_313
   80    83     0     0     0
SMALL
USER_CHARGES

mmff94s_NoEstat = 88.38
@<TRIPOS>ATOM
      1 C1          5.9504   -1.3642  -10.1903 C.ar      1 <0>        -0.1300
      2 C2          6.6765   -1.8241   -9.0918 C.ar      1 <0>        -0.1323
      3 C3          5.5463   -0.0305  -10.2504 C.ar      1 <0>        -0.1309
      4 C4          6.9984   -0.9504   -8.0532 C.ar      1 <0>        -0.1275
      5 C5          5.8681    0.8432   -9.2119 C.ar      1 <0>        -0.1272
      6 C6          6.5921    0.3776   -8.1201 C.ar      1 <0>        -0.0843
      7 C7          6.1974    2.2868   -4.7798 C.2       1 <0>         0.6709
      8 C8          5.2358    2.3798    1.5634 C.2       1 <0>         0.4867
      9 C9          5.6457    1.7076    2.8411 C.2       1 <0>         0.5883
     10 C10         5.7098    2.8119   -1.6475 C.2       1 <0>         0.6572
     11 C11         5.7976    4.5992    6.9518 C.3       1 <0>        -0.0802
     12 C12         6.9636    4.4336    5.9807 C.3       1 <0>        -0.0765
     13 C13         4.5615    3.8294    6.4943 C.3       1 <0>        -0.0774
     14 C14         7.2764    2.9590    5.7232 C.3       1 <0>        -0.0953
     15 C15         4.8800    2.3561    6.2359 C.3       1 <0>        -0.0906
     16 C16         3.6723    3.8570   -2.6681 C.3       1 <0>        -0.0871
     17 C17         4.4858    1.7161   -6.5463 C.3       1 <0>        -0.0716
     18 C18         2.9535    2.6133   -3.1875 C.3       1 <0>         0.1333
     19 C19         3.4659    2.2898   -5.5476 C.3       1 <0>         0.1246
     20 C20         5.1372    3.5153   -2.8394 C.3       1 <0>         0.0606
     21 C21         6.0492    2.1618    5.2613 C.3       1 <0>         0.1012
     22 C22         5.8481    1.3265   -5.9256 C.3       1 <0>         0.1554
     23 C23         6.9383    1.3175   -7.0029 C.3       1 <0>        -0.0356
     24 C24         6.0158    5.3379    2.0114 C.3       1 <0>        -0.0795
     25 C25         6.7209    6.4716    2.7653 C.3       1 <0>        -0.1203
     26 C26         6.9719    4.2276    1.5544 C.3       1 <0>        -0.0920
     27 C27         5.7742    7.5909    3.1979 C.3       1 <0>         0.1502
     28 C28         6.2906    3.1130    0.7514 C.3       1 <0>         0.0224
     29 N1          5.1345    2.5635   -3.9339 N.am      1 <0>        -0.3553
     30 N2          3.8653    2.0037   -4.1710 N.3       1 <0>        -0.4320
     31 N3          5.7803   -0.0123   -5.3216 N.3       1 <0>        -0.9031
     32 N4          6.5168    8.6391    3.8900 N.3       1 <0>        -0.9068
     33 N5          5.6572    2.5717    3.9111 N.am      1 <0>        -0.5526
     34 N6          5.7762    3.5917   -0.5046 N.am      1 <0>        -0.5576
     35 O1          7.3278    2.7504   -4.6301 O.2       1 <0>        -0.6710
     36 O2          4.0412    2.3628    1.2952 O.2       1 <0>        -0.4901
     37 O3          5.9343    0.5229    2.7970 O.2       1 <0>        -0.5902
     38 O4          6.0670    1.6440   -1.7490 O.2       1 <0>        -0.5833
     39 H1          5.6997   -2.0446  -10.9989 H         1 <0>         0.1320
     40 H2          6.9911   -2.8626   -9.0451 H         1 <0>         0.1324
     41 H3          4.9808    0.3274  -11.1059 H         1 <0>         0.1328
     42 H4          7.5644   -1.3176   -7.2012 H         1 <0>         0.1324
     43 H5          5.5489    1.8806   -9.2673 H         1 <0>         0.1434
     44 H6          6.0995    4.2430    7.9446 H         1 <0>         0.0405
     45 H7          5.5526    5.6622    7.0563 H         1 <0>         0.0421
     46 H8          6.7246    4.9330    5.0340 H         1 <0>         0.0362
     47 H9          7.8521    4.9315    6.3857 H         1 <0>         0.0439
     48 H10         3.7777    3.9070    7.2564 H         1 <0>         0.0350
     49 H11         4.1624    4.2882    5.5817 H         1 <0>         0.0428
     50 H12         8.0766    2.8857    4.9768 H         1 <0>         0.0663
     51 H13         7.6628    2.5126    6.6483 H         1 <0>         0.0466
     52 H14         5.1287    1.8750    7.1905 H         1 <0>         0.0493
     53 H15         3.9824    1.8558    5.8525 H         1 <0>         0.0520
     54 H16         3.4181    4.7133   -3.3051 H         1 <0>         0.0915
     55 H17         3.3944    4.0971   -1.6373 H         1 <0>         0.0601
     56 H18         4.0497    0.8441   -7.0524 H         1 <0>         0.0688
     57 H19         4.6431    2.4675   -7.3320 H         1 <0>         0.0630
     58 H20         2.8170    1.9026   -2.3635 H         1 <0>         0.0807
     59 H21         1.9588    2.8453   -3.5837 H         1 <0>         0.0380
     60 H22         3.3744    3.3723   -5.7123 H         1 <0>         0.0484
     61 H23         2.4818    1.8533   -5.7569 H         1 <0>         0.0697
     62 H24         5.7646    4.3810   -3.0694 H         1 <0>         0.0843
     63 H25         6.3017    1.0986    5.1911 H         1 <0>         0.0831
     64 H26         7.8868    1.0311   -6.5450 H         1 <0>         0.0704
     65 H27         7.0672    2.3317   -7.3854 H         1 <0>         0.0718
     66 H28         5.2579    4.9142    2.6804 H         1 <0>         0.0606
     67 H29         5.4809    5.7546    1.1500 H         1 <0>         0.0458
     68 H30         7.2000    6.0392    3.6534 H         1 <0>         0.0375
     69 H31         7.5258    6.8807    2.1417 H         1 <0>         0.0392
     70 H32         7.4599    3.7926    2.4354 H         1 <0>         0.0606
     71 H33         7.7645    4.6634    0.9347 H         1 <0>         0.0579
     72 H34         4.9986    7.1962    3.8630 H         1 <0>         0.0571
     73 H35         5.2784    8.0349    2.3297 H         1 <0>         0.0503
     74 H36         7.0421    2.3587    0.4881 H         1 <0>         0.0993
     75 H37         4.9287   -0.2795   -4.8849 H         1 <0>         0.3700
     76 H38         6.6336   -0.5056   -5.1950 H         1 <0>         0.3660
     77 H39         5.9996    9.3711    4.3277 H         1 <0>         0.3465
     78 H40         7.4997    8.7018    3.7315 H         1 <0>         0.3446
     79 H41         5.3815    3.5372    3.7580 H         1 <0>         0.3148
     80 H42         5.4441    4.5531   -0.5557 H         1 <0>         0.3220
@<TRIPOS>BOND
     1    1    2 ar
     2    1    3 ar
     3    2    4 ar
     4    3    5 ar
     5    4    6 ar
     6    5    6 ar
     7    6   23 1
     8    7   22 1
     9    7   29 am
    10    7   35 2
    11    8    9 1
    12    8   28 1
    13    8   36 2
    14    9   33 am
    15    9   37 2
    16   10   20 1
    17   10   34 am
    18   10   38 2
    19   11   12 1
    20   11   13 1
    21   12   14 1
    22   13   15 1
    23   14   21 1
    24   15   21 1
    25   16   18 1
    26   16   20 1
    27   17   19 1
    28   17   22 1
    29   18   30 1
    30   19   30 1
    31   20   29 1
    32   21   33 1
    33   22   23 1
    34   22   31 1
    35   24   25 1
    36   24   26 1
    37   25   27 1
    38   26   28 1
    39   27   32 1
    40   28   34 1
    41   29   30 1
    42    1   39 1
    43    2   40 1
    44    3   41 1
    45    4   42 1
    46    5   43 1
    47   11   44 1
    48   11   45 1
    49   12   46 1
    50   12   47 1
    51   13   48 1
    52   13   49 1
    53   14   50 1
    54   14   51 1
    55   15   52 1
    56   15   53 1
    57   16   54 1
    58   16   55 1
    59   17   56 1
    60   17   57 1
    61   18   58 1
    62   18   59 1
    63   19   60 1
    64   19   61 1
    65   20   62 1
    66   21   63 1
    67   23   64 1
    68   23   65 1
    69   24   66 1
    70   24   67 1
    71   25   68 1
    72   25   69 1
    73   26   70 1
    74   26   71 1
    75   27   72 1
    76   27   73 1
    77   28   74 1
    78   31   75 1
    79   31   76 1
    80   32   77 1
    81   32   78 1
    82   33   79 1
    83   34   80 1
@<TRIPOS>MOLECULE
1a46_ligand_314
   80    83     0     0     0
SMALL
USER_CHARGES

mmff94s_NoEstat = 88.41
@<TRIPOS>ATOM
      1 C1         -5.9518    1.0529  -15.7574 C.ar      1 <0>        -0.1300
      2 C2         -4.7078    1.6646  -15.9115 C.ar      1 <0>        -0.1323
      3 C3         -6.6077    1.1063  -14.5275 C.ar      1 <0>        -0.1309
      4 C4         -4.1196    2.3297  -14.8357 C.ar      1 <0>        -0.1275
      5 C5         -6.0195    1.7714  -13.4517 C.ar      1 <0>        -0.1272
      6 C6         -4.7793    2.3787  -13.6128 C.ar      1 <0>        -0.0843
      7 C7         -2.6173    2.8751  -10.4447 C.2       1 <0>         0.6709
      8 C8          2.7796    3.2097   -6.1637 C.2       1 <0>         0.4867
      9 C9          4.2189    2.8058   -6.2975 C.2       1 <0>         0.5883
     10 C10        -0.0591    2.8141   -8.5012 C.2       1 <0>         0.6572
     11 C11         8.7940    4.1628   -8.8355 C.3       1 <0>        -0.0802
     12 C12         8.0848    2.8134   -8.9053 C.3       1 <0>        -0.0765
     13 C13         8.5944    4.8346   -7.4799 C.3       1 <0>        -0.0774
     14 C14         6.6033    2.9365   -8.5529 C.3       1 <0>        -0.0953
     15 C15         7.1135    4.9606   -7.1263 C.3       1 <0>        -0.0906
     16 C16        -1.5879    1.1654   -7.3921 C.3       1 <0>        -0.0871
     17 C17        -4.1019    0.9486  -11.1228 C.3       1 <0>        -0.0716
     18 C18        -1.5823    0.0424   -8.4274 C.3       1 <0>         0.1333
     19 C19        -3.5290    0.2485   -9.8784 C.3       1 <0>         0.1246
     20 C20        -1.4789    2.4202   -8.2321 C.3       1 <0>         0.0606
     21 C21         6.4079    3.6013   -7.1859 C.3       1 <0>         0.1012
     22 C22        -3.2673    2.1480  -11.6303 C.3       1 <0>         0.1554
     23 C23        -4.1466    3.0941  -12.4556 C.3       1 <0>        -0.0356
     24 C24         1.5857    6.0302   -6.5865 C.3       1 <0>        -0.0795
     25 C25         1.6811    7.5259   -6.9095 C.3       1 <0>        -0.1203
     26 C26         2.1570    5.1335   -7.6933 C.3       1 <0>        -0.0920
     27 C27         0.9506    7.9153   -8.1942 C.3       1 <0>         0.1502
     28 C28         2.0196    3.6328   -7.4097 C.3       1 <0>         0.0224
     29 N1         -2.0587    2.0261   -9.5019 N.am      1 <0>        -0.3553
     30 N2         -2.1349    0.6298   -9.6602 N.3       1 <0>        -0.4320
     31 N3         -2.1572    1.6877  -12.4773 N.3       1 <0>        -0.9031
     32 N4          1.1008    9.3448   -8.4455 N.3       1 <0>        -0.9068
     33 N5          4.9815    3.7697   -6.9148 N.am      1 <0>        -0.5526
     34 N6          0.6426    3.2153   -7.3763 N.am      1 <0>        -0.5576
     35 O1         -2.5899    4.1027  -10.3594 O.2       1 <0>        -0.6710
     36 O2          2.3266    3.2509   -5.0269 O.2       1 <0>        -0.4901
     37 O3          4.5449    1.7053   -5.8835 O.2       1 <0>        -0.5902
     38 O4          0.3766    2.7593   -9.6452 O.2       1 <0>        -0.5833
     39 H1         -6.4098    0.5350  -16.5951 H         1 <0>         0.1320
     40 H2         -4.1972    1.6230  -16.8692 H         1 <0>         0.1324
     41 H3         -7.5763    0.6298  -14.4076 H         1 <0>         0.1328
     42 H4         -3.1501    2.8034  -14.9651 H         1 <0>         0.1324
     43 H5         -6.5379    1.8077  -12.4972 H         1 <0>         0.1434
     44 H6          9.8646    4.0270   -9.0256 H         1 <0>         0.0405
     45 H7          8.4089    4.8178   -9.6268 H         1 <0>         0.0421
     46 H8          8.1903    2.3931   -9.9118 H         1 <0>         0.0362
     47 H9          8.5662    2.1113   -8.2135 H         1 <0>         0.0439
     48 H10         9.1058    4.2518   -6.7039 H         1 <0>         0.0350
     49 H11         9.0565    5.8283   -7.4896 H         1 <0>         0.0428
     50 H12         6.0911    3.5189   -9.3301 H         1 <0>         0.0663
     51 H13         6.1406    1.9420   -8.5553 H         1 <0>         0.0466
     52 H14         7.0103    5.3924   -6.1234 H         1 <0>         0.0493
     53 H15         6.6320    5.6640   -7.8185 H         1 <0>         0.0520
     54 H16        -2.5475    1.1615   -6.8606 H         1 <0>         0.0915
     55 H17        -0.7842    1.0569   -6.6575 H         1 <0>         0.0601
     56 H18        -4.2204    0.2148  -11.9317 H         1 <0>         0.0688
     57 H19        -5.1178    1.2870  -10.8778 H         1 <0>         0.0630
     58 H20        -0.5477   -0.2605   -8.6286 H         1 <0>         0.0807
     59 H21        -2.1179   -0.8467   -8.0766 H         1 <0>         0.0380
     60 H22        -4.1468    0.5063   -9.0071 H         1 <0>         0.0484
     61 H23        -3.6100   -0.8367  -10.0142 H         1 <0>         0.0697
     62 H24        -2.0054    3.2790   -7.8063 H         1 <0>         0.0843
     63 H25         6.7956    2.9472   -6.3964 H         1 <0>         0.0831
     64 H26        -3.5359    3.9262  -12.8108 H         1 <0>         0.0704
     65 H27        -4.9137    3.5213  -11.8072 H         1 <0>         0.0718
     66 H28         2.1358    5.8550   -5.6547 H         1 <0>         0.0606
     67 H29         0.5392    5.7688   -6.3906 H         1 <0>         0.0458
     68 H30         1.2509    8.0813   -6.0658 H         1 <0>         0.0375
     69 H31         2.7364    7.8199   -6.9737 H         1 <0>         0.0392
     70 H32         3.2164    5.3787   -7.8393 H         1 <0>         0.0606
     71 H33         1.6466    5.3535   -8.6384 H         1 <0>         0.0579
     72 H34        -0.1142    7.6709   -8.1144 H         1 <0>         0.0571
     73 H35         1.3573    7.3696   -9.0507 H         1 <0>         0.0503
     74 H36         2.4714    3.0747   -8.2388 H         1 <0>         0.0993
     75 H37        -1.7180    0.8294  -12.2371 H         1 <0>         0.3700
     76 H38        -1.7642    2.3382  -13.1175 H         1 <0>         0.3660
     77 H39         0.5734    9.7495   -9.1891 H         1 <0>         0.3465
     78 H40         1.8624    9.8209   -8.0113 H         1 <0>         0.3446
     79 H41         4.5336    4.6372   -7.1947 H         1 <0>         0.3148
     80 H42         0.1596    3.2148   -6.4798 H         1 <0>         0.3220
@<TRIPOS>BOND
     1    1    2 ar
     2    1    3 ar
     3    2    4 ar
     4    3    5 ar
     5    4    6 ar
     6    5    6 ar
     7    6   23 1
     8    7   22 1
     9    7   29 am
    10    7   35 2
    11    8    9 1
    12    8   28 1
    13    8   36 2
    14    9   33 am
    15    9   37 2
    16   10   20 1
    17   10   34 am
    18   10   38 2
    19   11   12 1
    20   11   13 1
    21   12   14 1
    22   13   15 1
    23   14   21 1
    24   15   21 1
    25   16   18 1
    26   16   20 1
    27   17   19 1
    28   17   22 1
    29   18   30 1
    30   19   30 1
    31   20   29 1
    32   21   33 1
    33   22   23 1
    34   22   31 1
    35   24   25 1
    36   24   26 1
    37   25   27 1
    38   26   28 1
    39   27   32 1
    40   28   34 1
    41   29   30 1
    42    1   39 1
    43    2   40 1
    44    3   41 1
    45    4   42 1
    46    5   43 1
    47   11   44 1
    48   11   45 1
    49   12   46 1
    50   12   47 1
    51   13   48 1
    52   13   49 1
    53   14   50 1
    54   14   51 1
    55   15   52 1
    56   15   53 1
    57   16   54 1
    58   16   55 1
    59   17   56 1
    60   17   57 1
    61   18   58 1
    62   18   59 1
    63   19   60 1
    64   19   61 1
    65   20   62 1
    66   21   63 1
    67   23   64 1
    68   23   65 1
    69   24   66 1
    70   24   67 1
    71   25   68 1
    72   25   69 1
    73   26   70 1
    74   26   71 1
    75   27   72 1
    76   27   73 1
    77   28   74 1
    78   31   75 1
    79   31   76 1
    80   32   77 1
    81   32   78 1
    82   33   79 1
    83   34   80 1
@<TRIPOS>MOLECULE
1a46_ligand_315
   80    83     0     0     0
SMALL
USER_CHARGES

mmff94s_NoEstat = 88.45
@<TRIPOS>ATOM
      1 C1         11.2165    5.1344   -9.5699 C.ar      1 <0>        -0.1300
      2 C2         11.8039    4.7828   -8.3546 C.ar      1 <0>        -0.1323
      3 C3          9.9328    5.6797   -9.5922 C.ar      1 <0>        -0.1309
      4 C4         11.1077    4.9765   -7.1616 C.ar      1 <0>        -0.1275
      5 C5          9.2366    5.8734   -8.3991 C.ar      1 <0>        -0.1272
      6 C6          9.8285    5.5206   -7.1916 C.ar      1 <0>        -0.0843
      7 C7          7.4784    4.7027   -4.2310 C.2       1 <0>         0.6709
      8 C8          5.2358    2.3798    1.5634 C.2       1 <0>         0.4867
      9 C9          5.6522    1.1980    2.3894 C.2       1 <0>         0.5883
     10 C10         6.2126    3.1256   -1.7338 C.2       1 <0>         0.6572
     11 C11         8.2033    2.0193    6.5384 C.3       1 <0>        -0.0802
     12 C12         8.9691    2.0883    5.2198 C.3       1 <0>        -0.0765
     13 C13         6.7223    1.7204    6.3220 C.3       1 <0>        -0.0774
     14 C14         8.7614    0.8261    4.3817 C.3       1 <0>        -0.0953
     15 C15         6.5199    0.4588    5.4816 C.3       1 <0>        -0.0906
     16 C16         4.3868    2.9365   -3.4414 C.3       1 <0>        -0.0871
     17 C17         7.2608    4.1580   -6.6868 C.3       1 <0>        -0.0716
     18 C18         5.0537    2.0131   -4.4592 C.3       1 <0>         0.1333
     19 C19         6.0339    3.3363   -6.2552 C.3       1 <0>         0.1246
     20 C20         5.5372    3.7637   -2.9085 C.3       1 <0>         0.0606
     21 C21         7.2794    0.5030    4.1490 C.3       1 <0>         0.1012
     22 C22         8.2469    4.4948   -5.5436 C.3       1 <0>         0.1554
     23 C23         9.0796    5.7289   -5.9083 C.3       1 <0>        -0.0356
     24 C24         8.0800    4.9598    0.7851 C.3       1 <0>        -0.0795
     25 C25         8.7880    6.0338    1.6192 C.3       1 <0>        -0.1203
     26 C26         6.9719    4.2276    1.5544 C.3       1 <0>        -0.0920
     27 C27         9.9095    6.7454    0.8629 C.3       1 <0>         0.1502
     28 C28         6.2906    3.1130    0.7514 C.3       1 <0>         0.0224
     29 N1          6.4904    3.7576   -4.0019 N.am      1 <0>        -0.3553
     30 N2          6.2438    2.7368   -4.9387 N.3       1 <0>        -0.4320
     31 N3          9.1632    3.3713   -5.2994 N.3       1 <0>        -0.9031
     32 N4          9.3732    7.4215   -0.3138 N.3       1 <0>        -0.9068
     33 N5          6.6784    1.4957    3.2556 N.am      1 <0>        -0.5526
     34 N6          5.7762    3.5917   -0.5046 N.am      1 <0>        -0.5576
     35 O1          7.7368    5.6223   -3.4546 O.2       1 <0>        -0.6710
     36 O2          4.0675    2.7325    1.6631 O.2       1 <0>        -0.4901
     37 O3          5.0785    0.1378    2.2009 O.2       1 <0>        -0.5902
     38 O4          7.0689    2.2691   -1.9210 O.2       1 <0>        -0.5833
     39 H1         11.7586    4.9835  -10.4989 H         1 <0>         0.1320
     40 H2         12.8034    4.3582   -8.3374 H         1 <0>         0.1324
     41 H3          9.4755    5.9533  -10.5385 H         1 <0>         0.1328
     42 H4         11.5733    4.6996   -6.2195 H         1 <0>         0.1324
     43 H5          8.2369    6.2989   -8.4262 H         1 <0>         0.1434
     44 H6          8.6419    1.2382    7.1717 H         1 <0>         0.0405
     45 H7          8.3135    2.9662    7.0790 H         1 <0>         0.0421
     46 H8          8.6421    2.9682    4.6527 H         1 <0>         0.0362
     47 H9         10.0379    2.2218    5.4226 H         1 <0>         0.0439
     48 H10         6.2267    1.5983    7.2920 H         1 <0>         0.0350
     49 H11         6.2452    2.5755    5.8281 H         1 <0>         0.0428
     50 H12         9.2774    0.9428    3.4210 H         1 <0>         0.0663
     51 H13         9.2336   -0.0211    4.8951 H         1 <0>         0.0466
     52 H14         6.8632   -0.4096    6.0583 H         1 <0>         0.0493
     53 H15         5.4478    0.3156    5.3000 H         1 <0>         0.0520
     54 H16         3.6738    3.5897   -3.9595 H         1 <0>         0.0915
     55 H17         3.8488    2.3812   -2.6670 H         1 <0>         0.0601
     56 H18         7.7933    3.6252   -7.4865 H         1 <0>         0.0688
     57 H19         6.8963    5.0889   -7.1420 H         1 <0>         0.0630
     58 H20         5.3910    1.1000   -3.9542 H         1 <0>         0.0807
     59 H21         4.3651    1.7081   -5.2548 H         1 <0>         0.0380
     60 H22         5.1498    3.9888   -6.2523 H         1 <0>         0.0484
     61 H23         5.8493    2.5563   -7.0035 H         1 <0>         0.0697
     62 H24         5.2534    4.7844   -2.6367 H         1 <0>         0.0843
     63 H25         7.1851   -0.4595    3.6354 H         1 <0>         0.0831
     64 H26         9.7736    5.9418   -5.0932 H         1 <0>         0.0704
     65 H27         8.4167    6.5923   -5.9906 H         1 <0>         0.0718
     66 H28         7.6494    5.4516   -0.0948 H         1 <0>         0.0606
     67 H29         8.8216    4.2418    0.4157 H         1 <0>         0.0458
     68 H30         8.0356    6.7709    1.9287 H         1 <0>         0.0375
     69 H31         9.1825    5.5824    2.5383 H         1 <0>         0.0392
     70 H32         6.2171    4.9575    1.8728 H         1 <0>         0.0606
     71 H33         7.3929    3.7874    2.4660 H         1 <0>         0.0579
     72 H34        10.6735    6.0252    0.5509 H         1 <0>         0.0571
     73 H35        10.3920    7.4923    1.5001 H         1 <0>         0.0503
     74 H36         7.0421    2.3587    0.4881 H         1 <0>         0.0993
     75 H37         8.8040    2.4509   -5.4050 H         1 <0>         0.3700
     76 H38        10.0264    3.5689   -4.8487 H         1 <0>         0.3660
     77 H39        10.0182    7.8250   -0.9589 H         1 <0>         0.3465
     78 H40         8.3988    7.6342   -0.3305 H         1 <0>         0.3446
     79 H41         7.0352    2.4464    3.2766 H         1 <0>         0.3148
     80 H42         5.0545    4.3100   -0.4888 H         1 <0>         0.3220
@<TRIPOS>BOND
     1    1    2 ar
     2    1    3 ar
     3    2    4 ar
     4    3    5 ar
     5    4    6 ar
     6    5    6 ar
     7    6   23 1
     8    7   22 1
     9    7   29 am
    10    7   35 2
    11    8    9 1
    12    8   28 1
    13    8   36 2
    14    9   33 am
    15    9   37 2
    16   10   20 1
    17   10   34 am
    18   10   38 2
    19   11   12 1
    20   11   13 1
    21   12   14 1
    22   13   15 1
    23   14   21 1
    24   15   21 1
    25   16   18 1
    26   16   20 1
    27   17   19 1
    28   17   22 1
    29   18   30 1
    30   19   30 1
    31   20   29 1
    32   21   33 1
    33   22   23 1
    34   22   31 1
    35   24   25 1
    36   24   26 1
    37   25   27 1
    38   26   28 1
    39   27   32 1
    40   28   34 1
    41   29   30 1
    42    1   39 1
    43    2   40 1
    44    3   41 1
    45    4   42 1
    46    5   43 1
    47   11   44 1
    48   11   45 1
    49   12   46 1
    50   12   47 1
    51   13   48 1
    52   13   49 1
    53   14   50 1
    54   14   51 1
    55   15   52 1
    56   15   53 1
    57   16   54 1
    58   16   55 1
    59   17   56 1
    60   17   57 1
    61   18   58 1
    62   18   59 1
    63   19   60 1
    64   19   61 1
    65   20   62 1
    66   21   63 1
    67   23   64 1
    68   23   65 1
    69   24   66 1
    70   24   67 1
    71   25   68 1
    72   25   69 1
    73   26   70 1
    74   26   71 1
    75   27   72 1
    76   27   73 1
    77   28   74 1
    78   31   75 1
    79   31   76 1
    80   32   77 1
    81   32   78 1
    82   33   79 1
    83   34   80 1
@<TRIPOS>MOLECULE
1a46_ligand_316
   80    83     0     0     0
SMALL
USER_CHARGES

mmff94s_NoEstat = 88.45
@<TRIPOS>ATOM
      1 C1         -5.9518    1.0529  -15.7574 C.ar      1 <0>        -0.1300
      2 C2         -4.7078    1.6646  -15.9115 C.ar      1 <0>        -0.1323
      3 C3         -6.6077    1.1063  -14.5275 C.ar      1 <0>        -0.1309
      4 C4         -4.1196    2.3297  -14.8357 C.ar      1 <0>        -0.1275
      5 C5         -6.0195    1.7714  -13.4517 C.ar      1 <0>        -0.1272
      6 C6         -4.7793    2.3787  -13.6128 C.ar      1 <0>        -0.0843
      7 C7         -2.6173    2.8751  -10.4447 C.2       1 <0>         0.6709
      8 C8          2.7796    3.2097   -6.1637 C.2       1 <0>         0.4867
      9 C9          2.2829    2.0299   -5.3801 C.2       1 <0>         0.5883
     10 C10        -0.0591    2.8141   -8.5012 C.2       1 <0>         0.6572
     11 C11        -1.2704    0.6207   -1.5588 C.3       1 <0>        -0.0802
     12 C12         0.0744    1.1096   -1.0285 C.3       1 <0>        -0.0765
     13 C13        -1.1365   -0.0014   -2.9459 C.3       1 <0>        -0.0774
     14 C14         0.7531    2.0650   -2.0087 C.3       1 <0>        -0.0953
     15 C15        -0.4598    0.9531   -3.9283 C.3       1 <0>        -0.0906
     16 C16        -1.5879    1.1654   -7.3921 C.3       1 <0>        -0.0871
     17 C17        -4.1019    0.9486  -11.1228 C.3       1 <0>        -0.0716
     18 C18        -1.5823    0.0424   -8.4274 C.3       1 <0>         0.1333
     19 C19        -3.5290    0.2485   -9.8784 C.3       1 <0>         0.1246
     20 C20        -1.4789    2.4202   -8.2321 C.3       1 <0>         0.0606
     21 C21         0.8958    1.4320   -3.3972 C.3       1 <0>         0.1012
     22 C22        -3.2673    2.1480  -11.6303 C.3       1 <0>         0.1554
     23 C23        -4.1466    3.0941  -12.4556 C.3       1 <0>        -0.0356
     24 C24         3.6080    5.6033   -7.8654 C.3       1 <0>        -0.0795
     25 C25         3.7321    7.1143   -8.0937 C.3       1 <0>        -0.1203
     26 C26         2.1570    5.1335   -7.6933 C.3       1 <0>        -0.0920
     27 C27         5.1782    7.5875   -8.2387 C.3       1 <0>         0.1502
     28 C28         2.0196    3.6328   -7.4097 C.3       1 <0>         0.0224
     29 N1         -2.0587    2.0261   -9.5019 N.am      1 <0>        -0.3553
     30 N2         -2.1349    0.6298   -9.6602 N.3       1 <0>        -0.4320
     31 N3         -2.1572    1.6877  -12.4773 N.3       1 <0>        -0.9031
     32 N4          5.2178    9.0330   -8.4337 N.3       1 <0>        -0.9068
     33 N5          1.4800    2.3978   -4.3257 N.am      1 <0>        -0.5526
     34 N6          0.6426    3.2153   -7.3763 N.am      1 <0>        -0.5576
     35 O1         -2.5899    4.1027  -10.3594 O.2       1 <0>        -0.6710
     36 O2          3.8302    3.7133   -5.7870 O.2       1 <0>        -0.4901
     37 O3          2.6437    0.9181   -5.7301 O.2       1 <0>        -0.5902
     38 O4          0.3766    2.7593   -9.6452 O.2       1 <0>        -0.5833
     39 H1         -6.4098    0.5350  -16.5951 H         1 <0>         0.1320
     40 H2         -4.1972    1.6230  -16.8692 H         1 <0>         0.1324
     41 H3         -7.5763    0.6298  -14.4076 H         1 <0>         0.1328
     42 H4         -3.1501    2.8034  -14.9651 H         1 <0>         0.1324
     43 H5         -6.5379    1.8077  -12.4972 H         1 <0>         0.1434
     44 H6         -1.6957   -0.1132   -0.8650 H         1 <0>         0.0405
     45 H7         -1.9720    1.4629   -1.6036 H         1 <0>         0.0421
     46 H8         -0.0697    1.6114   -0.0650 H         1 <0>         0.0362
     47 H9          0.7299    0.2492   -0.8461 H         1 <0>         0.0439
     48 H10        -0.5524   -0.9273   -2.8766 H         1 <0>         0.0350
     49 H11        -2.1278   -0.2766   -3.3234 H         1 <0>         0.0428
     50 H12         0.1691    2.9923   -2.0772 H         1 <0>         0.0663
     51 H13         1.7400    2.3481   -1.6229 H         1 <0>         0.0466
     52 H14        -0.3275    0.4526   -4.8952 H         1 <0>         0.0493
     53 H15        -1.1165    1.8138   -4.1113 H         1 <0>         0.0520
     54 H16        -2.5475    1.1615   -6.8606 H         1 <0>         0.0915
     55 H17        -0.7842    1.0569   -6.6575 H         1 <0>         0.0601
     56 H18        -4.2204    0.2148  -11.9317 H         1 <0>         0.0688
     57 H19        -5.1178    1.2870  -10.8778 H         1 <0>         0.0630
     58 H20        -0.5477   -0.2605   -8.6286 H         1 <0>         0.0807
     59 H21        -2.1179   -0.8467   -8.0766 H         1 <0>         0.0380
     60 H22        -4.1468    0.5063   -9.0071 H         1 <0>         0.0484
     61 H23        -3.6100   -0.8367  -10.0142 H         1 <0>         0.0697
     62 H24        -2.0054    3.2790   -7.8063 H         1 <0>         0.0843
     63 H25         1.5948    0.5889   -3.3505 H         1 <0>         0.0831
     64 H26        -3.5359    3.9262  -12.8108 H         1 <0>         0.0704
     65 H27        -4.9137    3.5213  -11.8072 H         1 <0>         0.0718
     66 H28         4.0550    5.0981   -8.7294 H         1 <0>         0.0606
     67 H29         4.2035    5.3200   -6.9896 H         1 <0>         0.0458
     68 H30         3.1762    7.3642   -9.0068 H         1 <0>         0.0375
     69 H31         3.2423    7.6502   -7.2709 H         1 <0>         0.0392
     70 H32         1.5916    5.3838   -8.5996 H         1 <0>         0.0606
     71 H33         1.6928    5.6841   -6.8667 H         1 <0>         0.0579
     72 H34         5.6557    7.0931   -9.0916 H         1 <0>         0.0571
     73 H35         5.7562    7.3441   -7.3424 H         1 <0>         0.0503
     74 H36         2.4714    3.0747   -8.2388 H         1 <0>         0.0993
     75 H37        -1.7180    0.8294  -12.2371 H         1 <0>         0.3700
     76 H38        -1.7642    2.3382  -13.1175 H         1 <0>         0.3660
     77 H39         6.0938    9.4532   -8.6597 H         1 <0>         0.3465
     78 H40         4.4297    9.5689   -8.1390 H         1 <0>         0.3446
     79 H41         1.2844    3.3846   -4.1861 H         1 <0>         0.3148
     80 H42         0.1596    3.2148   -6.4798 H         1 <0>         0.3220
@<TRIPOS>BOND
     1    1    2 ar
     2    1    3 ar
     3    2    4 ar
     4    3    5 ar
     5    4    6 ar
     6    5    6 ar
     7    6   23 1
     8    7   22 1
     9    7   29 am
    10    7   35 2
    11    8    9 1
    12    8   28 1
    13    8   36 2
    14    9   33 am
    15    9   37 2
    16   10   20 1
    17   10   34 am
    18   10   38 2
    19   11   12 1
    20   11   13 1
    21   12   14 1
    22   13   15 1
    23   14   21 1
    24   15   21 1
    25   16   18 1
    26   16   20 1
    27   17   19 1
    28   17   22 1
    29   18   30 1
    30   19   30 1
    31   20   29 1
    32   21   33 1
    33   22   23 1
    34   22   31 1
    35   24   25 1
    36   24   26 1
    37   25   27 1
    38   26   28 1
    39   27   32 1
    40   28   34 1
    41   29   30 1
    42    1   39 1
    43    2   40 1
    44    3   41 1
    45    4   42 1
    46    5   43 1
    47   11   44 1
    48   11   45 1
    49   12   46 1
    50   12   47 1
    51   13   48 1
    52   13   49 1
    53   14   50 1
    54   14   51 1
    55   15   52 1
    56   15   53 1
    57   16   54 1
    58   16   55 1
    59   17   56 1
    60   17   57 1
    61   18   58 1
    62   18   59 1
    63   19   60 1
    64   19   61 1
    65   20   62 1
    66   21   63 1
    67   23   64 1
    68   23   65 1
    69   24   66 1
    70   24   67 1
    71   25   68 1
    72   25   69 1
    73   26   70 1
    74   26   71 1
    75   27   72 1
    76   27   73 1
    77   28   74 1
    78   31   75 1
    79   31   76 1
    80   32   77 1
    81   32   78 1
    82   33   79 1
    83   34   80 1
@<TRIPOS>MOLECULE
1a46_ligand_317
   80    83     0     0     0
SMALL
USER_CHARGES

mmff94s_NoEstat = 88.60
@<TRIPOS>ATOM
      1 C1         -5.6555    0.9817  -15.7130 C.ar      1 <0>        -0.1300
      2 C2         -4.3647    1.4984  -15.8235 C.ar      1 <0>        -0.1323
      3 C3         -6.3466    1.0836  -14.5056 C.ar      1 <0>        -0.1309
      4 C4         -3.7648    2.1169  -14.7266 C.ar      1 <0>        -0.1275
      5 C5         -5.7468    1.7021  -13.4087 C.ar      1 <0>        -0.1272
      6 C6         -4.4597    2.2147  -13.5263 C.ar      1 <0>        -0.0843
      7 C7         -2.3745    2.5459  -10.2860 C.2       1 <0>         0.6709
      8 C8          2.7796    3.2097   -6.1637 C.2       1 <0>         0.4867
      9 C9          2.2829    2.0299   -5.3801 C.2       1 <0>         0.5883
     10 C10         0.1051    2.2921   -8.2580 C.2       1 <0>         0.6572
     11 C11        -1.2704    0.6207   -1.5588 C.3       1 <0>        -0.0802
     12 C12         0.0744    1.1096   -1.0285 C.3       1 <0>        -0.0765
     13 C13        -1.1365   -0.0014   -2.9459 C.3       1 <0>        -0.0774
     14 C14         0.7531    2.0650   -2.0087 C.3       1 <0>        -0.0953
     15 C15        -0.4598    0.9531   -3.9283 C.3       1 <0>        -0.0906
     16 C16        -1.5795    0.7621   -7.2058 C.3       1 <0>        -0.0871
     17 C17        -3.9757    0.7365  -11.0193 C.3       1 <0>        -0.0716
     18 C18        -1.6233   -0.3576   -8.2437 C.3       1 <0>         0.1333
     19 C19        -3.4991   -0.0052   -9.7586 C.3       1 <0>         0.1246
     20 C20        -1.3485    2.0056   -8.0379 C.3       1 <0>         0.0606
     21 C21         0.8958    1.4320   -3.3972 C.3       1 <0>         0.1012
     22 C22        -3.0369    1.8702  -11.4949 C.3       1 <0>         0.1554
     23 C23        -3.8144    2.8800  -12.3464 C.3       1 <0>        -0.0356
     24 C24         1.5857    6.0302   -6.5865 C.3       1 <0>        -0.0795
     25 C25         1.6811    7.5259   -6.9095 C.3       1 <0>        -0.1203
     26 C26         2.1570    5.1335   -7.6933 C.3       1 <0>        -0.0920
     27 C27         1.0885    8.4192   -5.8200 C.3       1 <0>         0.1502
     28 C28         2.0196    3.6328   -7.4097 C.3       1 <0>         0.0224
     29 N1         -1.9131    1.6568   -9.3276 N.am      1 <0>        -0.3553
     30 N2         -2.0885    0.2702   -9.4926 N.3       1 <0>        -0.4320
     31 N3         -1.9366    1.3283  -12.3056 N.3       1 <0>        -0.9031
     32 N4          1.1980    9.8225   -6.2046 N.3       1 <0>        -0.9068
     33 N5          1.4800    2.3978   -4.3257 N.am      1 <0>        -0.5526
     34 N6          0.6426    3.2153   -7.3763 N.am      1 <0>        -0.5576
     35 O1         -2.2579    3.7679  -10.1961 O.2       1 <0>        -0.6710
     36 O2          3.8302    3.7133   -5.7870 O.2       1 <0>        -0.4901
     37 O3          2.6437    0.9181   -5.7301 O.2       1 <0>        -0.5902
     38 O4          0.7038    1.7190   -9.1607 O.2       1 <0>        -0.5833
     39 H1         -6.1226    0.5001  -16.5671 H         1 <0>         0.1320
     40 H2         -3.8267    1.4191  -16.7636 H         1 <0>         0.1324
     41 H3         -7.3517    0.6811  -14.4197 H         1 <0>         0.1328
     42 H4         -2.7587    2.5166  -14.8219 H         1 <0>         0.1324
     43 H5         -6.2928    1.7768  -12.4720 H         1 <0>         0.1434
     44 H6         -1.6957   -0.1132   -0.8650 H         1 <0>         0.0405
     45 H7         -1.9720    1.4629   -1.6036 H         1 <0>         0.0421
     46 H8         -0.0697    1.6114   -0.0650 H         1 <0>         0.0362
     47 H9          0.7299    0.2492   -0.8461 H         1 <0>         0.0439
     48 H10        -0.5524   -0.9273   -2.8766 H         1 <0>         0.0350
     49 H11        -2.1278   -0.2766   -3.3234 H         1 <0>         0.0428
     50 H12         0.1691    2.9923   -2.0772 H         1 <0>         0.0663
     51 H13         1.7400    2.3481   -1.6229 H         1 <0>         0.0466
     52 H14        -0.3275    0.4526   -4.8952 H         1 <0>         0.0493
     53 H15        -1.1165    1.8138   -4.1113 H         1 <0>         0.0520
     54 H16        -2.5541    0.8301   -6.7067 H         1 <0>         0.0915
     55 H17        -0.8114    0.5932   -6.4450 H         1 <0>         0.0601
     56 H18        -4.1217    0.0141  -11.8339 H         1 <0>         0.0688
     57 H19        -4.9711    1.1501  -10.8075 H         1 <0>         0.0630
     58 H20        -0.6081   -0.7371   -8.4110 H         1 <0>         0.0807
     59 H21        -2.2356   -1.2041   -7.9138 H         1 <0>         0.0380
     60 H22        -4.1249    0.2978   -8.9076 H         1 <0>         0.0484
     61 H23        -3.6567   -1.0812   -9.9002 H         1 <0>         0.0697
     62 H24        -1.8232    2.9014   -7.6273 H         1 <0>         0.0843
     63 H25         1.5948    0.5889   -3.3505 H         1 <0>         0.0831
     64 H26        -3.1315    3.6641  -12.6783 H         1 <0>         0.0704
     65 H27        -4.5688    3.3633  -11.7227 H         1 <0>         0.0718
     66 H28         2.1358    5.8550   -5.6547 H         1 <0>         0.0606
     67 H29         0.5392    5.7688   -6.3906 H         1 <0>         0.0458
     68 H30         2.7419    7.7748   -7.0444 H         1 <0>         0.0375
     69 H31         1.1870    7.7255   -7.8687 H         1 <0>         0.0392
     70 H32         3.2164    5.3787   -7.8393 H         1 <0>         0.0606
     71 H33         1.6466    5.3535   -8.6384 H         1 <0>         0.0579
     72 H34         1.6137    8.2608   -4.8719 H         1 <0>         0.0571
     73 H35         0.0315    8.1861   -5.6617 H         1 <0>         0.0503
     74 H36         2.4714    3.0747   -8.2388 H         1 <0>         0.0993
     75 H37        -1.5713    0.4393  -12.0534 H         1 <0>         0.3700
     76 H38        -1.4746    1.9478  -12.9303 H         1 <0>         0.3660
     77 H39         0.9557   10.5154   -5.5293 H         1 <0>         0.3465
     78 H40         1.3102   10.0373   -7.1723 H         1 <0>         0.3446
     79 H41         1.2844    3.3846   -4.1861 H         1 <0>         0.3148
     80 H42         0.0323    3.6193   -6.6682 H         1 <0>         0.3220
@<TRIPOS>BOND
     1    1    2 ar
     2    1    3 ar
     3    2    4 ar
     4    3    5 ar
     5    4    6 ar
     6    5    6 ar
     7    6   23 1
     8    7   22 1
     9    7   29 am
    10    7   35 2
    11    8    9 1
    12    8   28 1
    13    8   36 2
    14    9   33 am
    15    9   37 2
    16   10   20 1
    17   10   34 am
    18   10   38 2
    19   11   12 1
    20   11   13 1
    21   12   14 1
    22   13   15 1
    23   14   21 1
    24   15   21 1
    25   16   18 1
    26   16   20 1
    27   17   19 1
    28   17   22 1
    29   18   30 1
    30   19   30 1
    31   20   29 1
    32   21   33 1
    33   22   23 1
    34   22   31 1
    35   24   25 1
    36   24   26 1
    37   25   27 1
    38   26   28 1
    39   27   32 1
    40   28   34 1
    41   29   30 1
    42    1   39 1
    43    2   40 1
    44    3   41 1
    45    4   42 1
    46    5   43 1
    47   11   44 1
    48   11   45 1
    49   12   46 1
    50   12   47 1
    51   13   48 1
    52   13   49 1
    53   14   50 1
    54   14   51 1
    55   15   52 1
    56   15   53 1
    57   16   54 1
    58   16   55 1
    59   17   56 1
    60   17   57 1
    61   18   58 1
    62   18   59 1
    63   19   60 1
    64   19   61 1
    65   20   62 1
    66   21   63 1
    67   23   64 1
    68   23   65 1
    69   24   66 1
    70   24   67 1
    71   25   68 1
    72   25   69 1
    73   26   70 1
    74   26   71 1
    75   27   72 1
    76   27   73 1
    77   28   74 1
    78   31   75 1
    79   31   76 1
    80   32   77 1
    81   32   78 1
    82   33   79 1
    83   34   80 1
@<TRIPOS>MOLECULE
1a46_ligand_318
   80    83     0     0     0
SMALL
USER_CHARGES

mmff94s_NoEstat = 88.61
@<TRIPOS>ATOM
      1 C1         -6.9230    5.5242    0.0960 C.ar      1 <0>        -0.1300
      2 C2         -5.5676    5.7959    0.2823 C.ar      1 <0>        -0.1323
      3 C3         -7.3195    4.5504   -0.8207 C.ar      1 <0>        -0.1309
      4 C4         -4.6088    5.0941   -0.4482 C.ar      1 <0>        -0.1275
      5 C5         -6.3607    3.8486   -1.5512 C.ar      1 <0>        -0.1272
      6 C6         -5.0116    4.1250   -1.3602 C.ar      1 <0>        -0.0843
      7 C7         -2.6002    3.3123   -4.2727 C.2       1 <0>         0.6709
      8 C8          2.7796    3.2097   -6.1637 C.2       1 <0>         0.4867
      9 C9          2.2829    2.0299   -5.3801 C.2       1 <0>         0.5883
     10 C10        -0.2772    3.6966   -6.4593 C.2       1 <0>         0.6572
     11 C11         3.1352   -0.7430   -0.8195 C.3       1 <0>        -0.0802
     12 C12         3.9901   -1.1863   -2.0034 C.3       1 <0>        -0.0765
     13 C13         1.8125   -0.1343   -1.2766 C.3       1 <0>        -0.0774
     14 C14         4.2106   -0.0471   -2.9972 C.3       1 <0>        -0.0953
     15 C15         2.0307    1.0065   -2.2690 C.3       1 <0>        -0.0906
     16 C16        -2.3224    3.5471   -7.9015 C.3       1 <0>        -0.0871
     17 C17        -4.9405    4.2595   -4.3066 C.3       1 <0>        -0.0716
     18 C18        -3.0196    4.8544   -7.5301 C.3       1 <0>         0.1333
     19 C19        -4.6999    4.4350   -5.8160 C.3       1 <0>         0.1246
     20 C20        -1.6533    3.1250   -6.6108 C.3       1 <0>         0.0606
     21 C21         2.8795    0.5537   -3.4621 C.3       1 <0>         0.1012
     22 C22        -3.6553    4.0808   -3.4645 C.3       1 <0>         0.1554
     23 C23        -3.9801    3.3700   -2.1460 C.3       1 <0>        -0.0356
     24 C24         1.4445    5.5921   -8.9731 C.3       1 <0>        -0.0795
     25 C25         1.6370    7.0835   -9.2718 C.3       1 <0>        -0.1203
     26 C26         2.1570    5.1335   -7.6933 C.3       1 <0>        -0.0920
     27 C27         0.9502    7.5360  -10.5601 C.3       1 <0>         0.1502
     28 C28         2.0196    3.6328   -7.4097 C.3       1 <0>         0.0224
     29 N1         -2.4817    3.7343   -5.5879 N.am      1 <0>        -0.3553
     30 N2         -3.3016    4.7634   -6.0871 N.3       1 <0>        -0.4320
     31 N3         -3.0521    5.3850   -3.1534 N.3       1 <0>        -0.9031
     32 N4          1.1922    8.9569  -10.7874 N.3       1 <0>        -0.9068
     33 N5          3.1295    1.6859   -4.3521 N.am      1 <0>        -0.5526
     34 N6          0.6426    3.2153   -7.3763 N.am      1 <0>        -0.5576
     35 O1         -1.9182    2.4140   -3.7798 O.2       1 <0>        -0.6710
     36 O2          3.8302    3.7133   -5.7870 O.2       1 <0>        -0.4901
     37 O3          1.2381    1.5078   -5.7331 O.2       1 <0>        -0.5902
     38 O4         -0.0579    4.5177   -5.5765 O.2       1 <0>        -0.5833
     39 H1         -7.6696    6.0707    0.6647 H         1 <0>         0.1320
     40 H2         -5.2590    6.5541    0.9960 H         1 <0>         0.1324
     41 H3         -8.3749    4.3390   -0.9657 H         1 <0>         0.1328
     42 H4         -3.5551    5.3126   -0.2965 H         1 <0>         0.1324
     43 H5         -6.6790    3.0917   -2.2632 H         1 <0>         0.1434
     44 H6          2.9400   -1.5995   -0.1644 H         1 <0>         0.0405
     45 H7          3.6896   -0.0057   -0.2260 H         1 <0>         0.0421
     46 H8          4.9578   -1.5528   -1.6424 H         1 <0>         0.0362
     47 H9          3.5008   -2.0249   -2.5138 H         1 <0>         0.0439
     48 H10         1.1947   -0.9108   -1.7442 H         1 <0>         0.0350
     49 H11         1.2571    0.2351   -0.4071 H         1 <0>         0.0428
     50 H12         4.8299    0.7297   -2.5295 H         1 <0>         0.0663
     51 H13         4.7767   -0.4166   -3.8608 H         1 <0>         0.0466
     52 H14         1.0607    1.3794   -2.6197 H         1 <0>         0.0493
     53 H15         2.5198    1.8461   -1.7576 H         1 <0>         0.0520
     54 H16        -3.0774    2.8030   -8.1842 H         1 <0>         0.0915
     55 H17        -1.6271    3.6703   -8.7375 H         1 <0>         0.0601
     56 H18        -5.5127    5.1168   -3.9266 H         1 <0>         0.0688
     57 H19        -5.5913    3.3849   -4.1715 H         1 <0>         0.0630
     58 H20        -2.3297    5.6917   -7.6901 H         1 <0>         0.0807
     59 H21        -3.9050    5.0413   -8.1478 H         1 <0>         0.0380
     60 H22        -4.9933    3.5117   -6.3344 H         1 <0>         0.0484
     61 H23        -5.3567    5.2300   -6.1889 H         1 <0>         0.0697
     62 H24        -1.5977    2.0405   -6.4809 H         1 <0>         0.0843
     63 H25         2.3252   -0.1849   -4.0527 H         1 <0>         0.0831
     64 H26        -3.0622    3.2636   -1.5651 H         1 <0>         0.0704
     65 H27        -4.3327    2.3604   -2.3649 H         1 <0>         0.0718
     66 H28         0.3683    5.4079   -8.8774 H         1 <0>         0.0606
     67 H29         1.7918    5.0040   -9.8306 H         1 <0>         0.0458
     68 H30         1.2300    7.6523   -8.4256 H         1 <0>         0.0375
     69 H31         2.7093    7.3123   -9.3176 H         1 <0>         0.0392
     70 H32         1.7604    5.7005   -6.8419 H         1 <0>         0.0606
     71 H33         3.2243    5.3739   -7.7660 H         1 <0>         0.0579
     72 H34        -0.1287    7.3572  -10.4981 H         1 <0>         0.0571
     73 H35         1.3345    6.9786  -11.4193 H         1 <0>         0.0503
     74 H36         2.4714    3.0747   -8.2388 H         1 <0>         0.0993
     75 H37        -3.1119    6.0979   -3.8428 H         1 <0>         0.3700
     76 H38        -2.4431    5.4370   -2.3699 H         1 <0>         0.3660
     77 H39         0.7014    9.4044  -11.5317 H         1 <0>         0.3465
     78 H40         1.9755    9.3785  -10.3359 H         1 <0>         0.3446
     79 H41         3.9656    2.2434   -4.2049 H         1 <0>         0.3148
     80 H42         0.3285    2.5310   -8.0620 H         1 <0>         0.3220
@<TRIPOS>BOND
     1    1    2 ar
     2    1    3 ar
     3    2    4 ar
     4    3    5 ar
     5    4    6 ar
     6    5    6 ar
     7    6   23 1
     8    7   22 1
     9    7   29 am
    10    7   35 2
    11    8    9 1
    12    8   28 1
    13    8   36 2
    14    9   33 am
    15    9   37 2
    16   10   20 1
    17   10   34 am
    18   10   38 2
    19   11   12 1
    20   11   13 1
    21   12   14 1
    22   13   15 1
    23   14   21 1
    24   15   21 1
    25   16   18 1
    26   16   20 1
    27   17   19 1
    28   17   22 1
    29   18   30 1
    30   19   30 1
    31   20   29 1
    32   21   33 1
    33   22   23 1
    34   22   31 1
    35   24   25 1
    36   24   26 1
    37   25   27 1
    38   26   28 1
    39   27   32 1
    40   28   34 1
    41   29   30 1
    42    1   39 1
    43    2   40 1
    44    3   41 1
    45    4   42 1
    46    5   43 1
    47   11   44 1
    48   11   45 1
    49   12   46 1
    50   12   47 1
    51   13   48 1
    52   13   49 1
    53   14   50 1
    54   14   51 1
    55   15   52 1
    56   15   53 1
    57   16   54 1
    58   16   55 1
    59   17   56 1
    60   17   57 1
    61   18   58 1
    62   18   59 1
    63   19   60 1
    64   19   61 1
    65   20   62 1
    66   21   63 1
    67   23   64 1
    68   23   65 1
    69   24   66 1
    70   24   67 1
    71   25   68 1
    72   25   69 1
    73   26   70 1
    74   26   71 1
    75   27   72 1
    76   27   73 1
    77   28   74 1
    78   31   75 1
    79   31   76 1
    80   32   77 1
    81   32   78 1
    82   33   79 1
    83   34   80 1
@<TRIPOS>MOLECULE
1a46_ligand_319
   80    83     0     0     0
SMALL
USER_CHARGES

mmff94s_NoEstat = 88.68
@<TRIPOS>ATOM
      1 C1         -4.6917   -3.0051  -14.5357 C.ar      1 <0>        -0.1300
      2 C2         -3.4233   -2.4813  -14.7856 C.ar      1 <0>        -0.1323
      3 C3         -5.5209   -2.4030  -13.5893 C.ar      1 <0>        -0.1309
      4 C4         -2.9840   -1.3555  -14.0891 C.ar      1 <0>        -0.1275
      5 C5         -5.0816   -1.2772  -12.8927 C.ar      1 <0>        -0.1272
      6 C6         -3.8160   -0.7608  -13.1471 C.ar      1 <0>        -0.0843
      7 C7         -2.1349    1.2928  -10.3339 C.2       1 <0>         0.6709
      8 C8          2.7796    3.2097   -6.1637 C.2       1 <0>         0.4867
      9 C9          2.2829    2.0299   -5.3801 C.2       1 <0>         0.5883
     10 C10         0.1051    2.2921   -8.2580 C.2       1 <0>         0.6572
     11 C11         3.8521   -2.7307   -3.3579 C.3       1 <0>        -0.0802
     12 C12         3.3647   -2.7824   -4.8031 C.3       1 <0>        -0.0765
     13 C13         3.2011   -1.5875   -2.5845 C.3       1 <0>        -0.0774
     14 C14         3.5595   -1.4430   -5.5118 C.3       1 <0>        -0.0953
     15 C15         3.3964   -0.2468   -3.2904 C.3       1 <0>        -0.0906
     16 C16        -1.6127    1.3005   -6.7245 C.3       1 <0>        -0.0871
     17 C17        -3.5515   -0.7936  -10.2088 C.3       1 <0>        -0.0716
     18 C18        -1.4826   -0.1787   -7.0821 C.3       1 <0>         0.1333
     19 C19        -3.1872   -0.7856   -8.7142 C.3       1 <0>         0.1246
     20 C20        -1.3485    2.0056   -8.0379 C.3       1 <0>         0.0606
     21 C21         2.8945   -0.2997   -4.7376 C.3       1 <0>         0.1012
     22 C22        -2.6206    0.0571  -11.1047 C.3       1 <0>         0.1554
     23 C23        -3.3435    0.4502  -12.3978 C.3       1 <0>        -0.0356
     24 C24         3.6080    5.6033   -7.8654 C.3       1 <0>        -0.0795
     25 C25         3.7321    7.1143   -8.0937 C.3       1 <0>        -0.1203
     26 C26         2.1570    5.1335   -7.6933 C.3       1 <0>        -0.0920
     27 C27         5.1782    7.5875   -8.2387 C.3       1 <0>         0.1502
     28 C28         2.0196    3.6328   -7.4097 C.3       1 <0>         0.0224
     29 N1         -1.7438    1.0253   -9.0311 N.am      1 <0>        -0.3553
     30 N2         -1.8314   -0.2790   -8.5099 N.3       1 <0>        -0.4320
     31 N3         -1.4094   -0.6969  -11.4599 N.3       1 <0>        -0.9031
     32 N4          5.2178    9.0330   -8.4337 N.3       1 <0>        -0.9068
     33 N5          3.1633    0.9734   -5.4035 N.am      1 <0>        -0.5526
     34 N6          0.6426    3.2153   -7.3763 N.am      1 <0>        -0.5576
     35 O1         -2.0889    2.4118  -10.8445 O.2       1 <0>        -0.6710
     36 O2          3.8302    3.7133   -5.7870 O.2       1 <0>        -0.4901
     37 O3          1.1896    2.1176   -4.8457 O.2       1 <0>        -0.5902
     38 O4          0.7038    1.7190   -9.1607 O.2       1 <0>        -0.5833
     39 H1         -5.0337   -3.8817  -15.0780 H         1 <0>         0.1320
     40 H2         -2.7778   -2.9502  -15.5226 H         1 <0>         0.1324
     41 H3         -6.5084   -2.8111  -13.3947 H         1 <0>         0.1328
     42 H4         -1.9943   -0.9544  -14.2904 H         1 <0>         0.1324
     43 H5         -5.7344   -0.8149  -12.1571 H         1 <0>         0.1434
     44 H6          3.6347   -3.6829   -2.8611 H         1 <0>         0.0405
     45 H7          4.9418   -2.6046   -3.3455 H         1 <0>         0.0421
     46 H8          3.9027   -3.5679   -5.3456 H         1 <0>         0.0362
     47 H9          2.3016   -3.0522   -4.8208 H         1 <0>         0.0439
     48 H10         2.1283   -1.7867   -2.4713 H         1 <0>         0.0350
     49 H11         3.6248   -1.5374   -1.5751 H         1 <0>         0.0428
     50 H12         4.6333   -1.2441   -5.6262 H         1 <0>         0.0663
     51 H13         3.1451   -1.4996   -6.5258 H         1 <0>         0.0466
     52 H14         2.8670    0.5397   -2.7390 H         1 <0>         0.0493
     53 H15         4.4605    0.0234   -3.2719 H         1 <0>         0.0520
     54 H16        -2.6402    1.5041   -6.3986 H         1 <0>         0.0915
     55 H17        -0.9296    1.5953   -5.9220 H         1 <0>         0.0601
     56 H18        -3.5677   -1.8293  -10.5746 H         1 <0>         0.0688
     57 H19        -4.5835   -0.4292  -10.3032 H         1 <0>         0.0630
     58 H20        -0.4377   -0.4900   -6.9643 H         1 <0>         0.0807
     59 H21        -2.0868   -0.8173   -6.4283 H         1 <0>         0.0380
     60 H22        -3.9204   -0.1736   -8.1708 H         1 <0>         0.0484
     61 H23        -3.2749   -1.8064   -8.3232 H         1 <0>         0.0697
     62 H24        -1.9101    2.9367   -8.1555 H         1 <0>         0.0843
     63 H25         1.8060   -0.4283   -4.7482 H         1 <0>         0.0831
     64 H26        -2.6659    1.0404  -13.0174 H         1 <0>         0.0704
     65 H27        -4.1870    1.0971  -12.1499 H         1 <0>         0.0718
     66 H28         4.0550    5.0981   -8.7294 H         1 <0>         0.0606
     67 H29         4.2035    5.3200   -6.9896 H         1 <0>         0.0458
     68 H30         3.1762    7.3642   -9.0068 H         1 <0>         0.0375
     69 H31         3.2423    7.6502   -7.2709 H         1 <0>         0.0392
     70 H32         1.5916    5.3838   -8.5996 H         1 <0>         0.0606
     71 H33         1.6928    5.6841   -6.8667 H         1 <0>         0.0579
     72 H34         5.6557    7.0931   -9.0916 H         1 <0>         0.0571
     73 H35         5.7562    7.3441   -7.3424 H         1 <0>         0.0503
     74 H36         2.4714    3.0747   -8.2388 H         1 <0>         0.0993
     75 H37        -1.0328   -1.3138  -10.7781 H         1 <0>         0.3700
     76 H38        -0.9095   -0.4127  -12.2703 H         1 <0>         0.3660
     77 H39         6.0938    9.4532   -8.6597 H         1 <0>         0.3465
     78 H40         4.4297    9.5689   -8.1390 H         1 <0>         0.3446
     79 H41         4.0392    1.0827   -5.9058 H         1 <0>         0.3148
     80 H42         0.0323    3.6193   -6.6682 H         1 <0>         0.3220
@<TRIPOS>BOND
     1    1    2 ar
     2    1    3 ar
     3    2    4 ar
     4    3    5 ar
     5    4    6 ar
     6    5    6 ar
     7    6   23 1
     8    7   22 1
     9    7   29 am
    10    7   35 2
    11    8    9 1
    12    8   28 1
    13    8   36 2
    14    9   33 am
    15    9   37 2
    16   10   20 1
    17   10   34 am
    18   10   38 2
    19   11   12 1
    20   11   13 1
    21   12   14 1
    22   13   15 1
    23   14   21 1
    24   15   21 1
    25   16   18 1
    26   16   20 1
    27   17   19 1
    28   17   22 1
    29   18   30 1
    30   19   30 1
    31   20   29 1
    32   21   33 1
    33   22   23 1
    34   22   31 1
    35   24   25 1
    36   24   26 1
    37   25   27 1
    38   26   28 1
    39   27   32 1
    40   28   34 1
    41   29   30 1
    42    1   39 1
    43    2   40 1
    44    3   41 1
    45    4   42 1
    46    5   43 1
    47   11   44 1
    48   11   45 1
    49   12   46 1
    50   12   47 1
    51   13   48 1
    52   13   49 1
    53   14   50 1
    54   14   51 1
    55   15   52 1
    56   15   53 1
    57   16   54 1
    58   16   55 1
    59   17   56 1
    60   17   57 1
    61   18   58 1
    62   18   59 1
    63   19   60 1
    64   19   61 1
    65   20   62 1
    66   21   63 1
    67   23   64 1
    68   23   65 1
    69   24   66 1
    70   24   67 1
    71   25   68 1
    72   25   69 1
    73   26   70 1
    74   26   71 1
    75   27   72 1
    76   27   73 1
    77   28   74 1
    78   31   75 1
    79   31   76 1
    80   32   77 1
    81   32   78 1
    82   33   79 1
    83   34   80 1
@<TRIPOS>MOLECULE
1a46_ligand_320
   80    83     0     0     0
SMALL
USER_CHARGES

mmff94s_NoEstat = 88.71
@<TRIPOS>ATOM
      1 C1         11.2307    8.4980   -6.9074 C.ar      1 <0>        -0.1300
      2 C2         11.6037    8.0134   -5.6538 C.ar      1 <0>        -0.1323
      3 C3          9.8807    8.5885   -7.2468 C.ar      1 <0>        -0.1309
      4 C4         10.6268    7.6193   -4.7395 C.ar      1 <0>        -0.1275
      5 C5          8.9038    8.1943   -6.3325 C.ar      1 <0>        -0.1272
      6 C6          9.2832    7.7123   -5.0848 C.ar      1 <0>        -0.0843
      7 C7          6.8112    5.3648   -3.2584 C.2       1 <0>         0.6709
      8 C8          5.2358    2.3798    1.5634 C.2       1 <0>         0.4867
      9 C9          4.0737    1.7586    0.8450 C.2       1 <0>         0.5883
     10 C10         5.7098    2.8119   -1.6475 C.2       1 <0>         0.6572
     11 C11         4.8049   -2.8393   -1.0543 C.3       1 <0>        -0.0802
     12 C12         5.1334   -1.5466   -1.7966 C.3       1 <0>        -0.0765
     13 C13         4.2837   -2.5703    0.3549 C.3       1 <0>        -0.0774
     14 C14         3.9445   -0.5849   -1.8051 C.3       1 <0>        -0.0953
     15 C15         3.0965   -1.6064    0.3412 C.3       1 <0>        -0.0906
     16 C16         4.5614    2.5584   -3.8616 C.3       1 <0>        -0.0871
     17 C17         7.4096    5.5196   -5.7065 C.3       1 <0>        -0.0716
     18 C18         5.7552    2.2338   -4.7574 C.3       1 <0>         0.1333
     19 C19         6.5359    4.2626   -5.8584 C.3       1 <0>         0.1246
     20 C20         5.1372    3.5153   -2.8394 C.3       1 <0>         0.0606
     21 C21         3.4011   -0.2972   -0.3991 C.3       1 <0>         0.1012
     22 C22         7.8862    5.8039   -4.2626 C.3       1 <0>         0.1554
     23 C23         8.2324    7.2883   -4.1013 C.3       1 <0>        -0.0356
     24 C24         8.0800    4.9598    0.7851 C.3       1 <0>        -0.0795
     25 C25         8.7880    6.0338    1.6192 C.3       1 <0>        -0.1203
     26 C26         6.9719    4.2276    1.5544 C.3       1 <0>        -0.0920
     27 C27         9.9095    6.7454    0.8629 C.3       1 <0>         0.1502
     28 C28         6.2906    3.1130    0.7514 C.3       1 <0>         0.0224
     29 N1          6.2461    4.1312   -3.5428 N.am      1 <0>        -0.3553
     30 N2          6.6457    3.4048   -4.6800 N.3       1 <0>        -0.4320
     31 N3          9.0821    5.0103   -3.9441 N.3       1 <0>        -0.9031
     32 N4         10.5470    7.7366    1.7233 N.3       1 <0>        -0.9068
     33 N5          4.3625    0.5037    0.3619 N.am      1 <0>        -0.5526
     34 N6          5.7762    3.5917   -0.5046 N.am      1 <0>        -0.5576
     35 O1          6.4995    6.0504   -2.2848 O.2       1 <0>        -0.6710
     36 O2          5.3022    2.1819    2.7699 O.2       1 <0>        -0.4901
     37 O3          3.0463    2.4099    0.7491 O.2       1 <0>        -0.5902
     38 O4          6.0670    1.6440   -1.7490 O.2       1 <0>        -0.5833
     39 H1         11.9913    8.8048   -7.6194 H         1 <0>         0.1320
     40 H2         12.6548    7.9430   -5.3897 H         1 <0>         0.1324
     41 H3          9.5904    8.9656   -8.2230 H         1 <0>         0.1328
     42 H4         10.9268    7.2430   -3.7651 H         1 <0>         0.1324
     43 H5          7.8545    8.2683   -6.6056 H         1 <0>         0.1434
     44 H6          4.0495   -3.3996   -1.6192 H         1 <0>         0.0405
     45 H7          5.6979   -3.4724   -1.0028 H         1 <0>         0.0421
     46 H8          5.9978   -1.0638   -1.3249 H         1 <0>         0.0362
     47 H9          5.4242   -1.7791   -2.8274 H         1 <0>         0.0439
     48 H10         3.9836   -3.5152    0.8221 H         1 <0>         0.0350
     49 H11         5.0912   -2.1554    0.9702 H         1 <0>         0.0428
     50 H12         4.2419    0.3511   -2.2933 H         1 <0>         0.0663
     51 H13         3.1419   -1.0199   -2.4143 H         1 <0>         0.0466
     52 H14         2.2452   -2.1001   -0.1446 H         1 <0>         0.0493
     53 H15         2.7935   -1.3939    1.3737 H         1 <0>         0.0520
     54 H16         3.7944    3.0721   -4.4543 H         1 <0>         0.0915
     55 H17         4.1162    1.6608   -3.4217 H         1 <0>         0.0601
     56 H18         8.2801    5.4412   -6.3721 H         1 <0>         0.0688
     57 H19         6.8297    6.3763   -6.0759 H         1 <0>         0.0630
     58 H20         6.2922    1.3700   -4.3474 H         1 <0>         0.0807
     59 H21         5.4490    1.9715   -5.7762 H         1 <0>         0.0380
     60 H22         5.4939    4.5694   -6.0242 H         1 <0>         0.0484
     61 H23         6.8523    3.7181   -6.7562 H         1 <0>         0.0697
     62 H24         4.4225    4.2667   -2.4920 H         1 <0>         0.0843
     63 H25         2.4927    0.3103   -0.4689 H         1 <0>         0.0831
     64 H26         8.5747    7.4635   -3.0797 H         1 <0>         0.0704
     65 H27         7.3253    7.8806   -4.2350 H         1 <0>         0.0718
     66 H28         7.6494    5.4516   -0.0948 H         1 <0>         0.0606
     67 H29         8.8216    4.2418    0.4157 H         1 <0>         0.0458
     68 H30         8.0356    6.7709    1.9287 H         1 <0>         0.0375
     69 H31         9.1825    5.5824    2.5383 H         1 <0>         0.0392
     70 H32         6.2171    4.9575    1.8728 H         1 <0>         0.0606
     71 H33         7.3929    3.7874    2.4660 H         1 <0>         0.0579
     72 H34         9.5108    7.2416   -0.0285 H         1 <0>         0.0571
     73 H35        10.6706    6.0303    0.5375 H         1 <0>         0.0503
     74 H36         7.0421    2.3587    0.4881 H         1 <0>         0.0993
     75 H37         9.1461    4.0964   -4.3289 H         1 <0>         0.3700
     76 H38         9.6671    5.3316   -3.2079 H         1 <0>         0.3660
     77 H39        11.2163    8.3531    1.3147 H         1 <0>         0.3465
     78 H40        10.4498    7.6340    2.7108 H         1 <0>         0.3446
     79 H41         5.2837    0.1150    0.5408 H         1 <0>         0.3148
     80 H42         5.4441    4.5531   -0.5557 H         1 <0>         0.3220
@<TRIPOS>BOND
     1    1    2 ar
     2    1    3 ar
     3    2    4 ar
     4    3    5 ar
     5    4    6 ar
     6    5    6 ar
     7    6   23 1
     8    7   22 1
     9    7   29 am
    10    7   35 2
    11    8    9 1
    12    8   28 1
    13    8   36 2
    14    9   33 am
    15    9   37 2
    16   10   20 1
    17   10   34 am
    18   10   38 2
    19   11   12 1
    20   11   13 1
    21   12   14 1
    22   13   15 1
    23   14   21 1
    24   15   21 1
    25   16   18 1
    26   16   20 1
    27   17   19 1
    28   17   22 1
    29   18   30 1
    30   19   30 1
    31   20   29 1
    32   21   33 1
    33   22   23 1
    34   22   31 1
    35   24   25 1
    36   24   26 1
    37   25   27 1
    38   26   28 1
    39   27   32 1
    40   28   34 1
    41   29   30 1
    42    1   39 1
    43    2   40 1
    44    3   41 1
    45    4   42 1
    46    5   43 1
    47   11   44 1
    48   11   45 1
    49   12   46 1
    50   12   47 1
    51   13   48 1
    52   13   49 1
    53   14   50 1
    54   14   51 1
    55   15   52 1
    56   15   53 1
    57   16   54 1
    58   16   55 1
    59   17   56 1
    60   17   57 1
    61   18   58 1
    62   18   59 1
    63   19   60 1
    64   19   61 1
    65   20   62 1
    66   21   63 1
    67   23   64 1
    68   23   65 1
    69   24   66 1
    70   24   67 1
    71   25   68 1
    72   25   69 1
    73   26   70 1
    74   26   71 1
    75   27   72 1
    76   27   73 1
    77   28   74 1
    78   31   75 1
    79   31   76 1
    80   32   77 1
    81   32   78 1
    82   33   79 1
    83   34   80 1
@<TRIPOS>MOLECULE
1a46_ligand_321
   80    83     0     0     0
SMALL
USER_CHARGES

mmff94s_NoEstat = 88.75
@<TRIPOS>ATOM
      1 C1          5.4266   13.4365   -3.4169 C.ar      1 <0>        -0.1300
      2 C2          5.8751   12.9626   -2.1841 C.ar      1 <0>        -0.1323
      3 C3          4.6702   12.6105   -4.2484 C.ar      1 <0>        -0.1309
      4 C4          5.5674   11.6626   -1.7828 C.ar      1 <0>        -0.1275
      5 C5          4.3625   11.3105   -3.8471 C.ar      1 <0>        -0.1272
      6 C6          4.8131   10.8451   -2.6169 C.ar      1 <0>        -0.0843
      7 C7          5.2227    7.0215   -2.2038 C.2       1 <0>         0.6709
      8 C8          5.2358    2.3798    1.5634 C.2       1 <0>         0.4867
      9 C9          4.0737    1.7586    0.8450 C.2       1 <0>         0.5883
     10 C10         6.5648    4.1956   -1.4701 C.2       1 <0>         0.6572
     11 C11         4.9178   -0.1813   -3.6183 C.3       1 <0>        -0.0802
     12 C12         4.3601    1.1806   -3.2131 C.3       1 <0>        -0.0765
     13 C13         5.2798   -1.0327   -2.4042 C.3       1 <0>        -0.0774
     14 C14         3.1836    1.0419   -2.2460 C.3       1 <0>        -0.0953
     15 C15         4.1009   -1.1664   -1.4392 C.3       1 <0>        -0.0906
     16 C16         6.4370    4.0713   -3.9709 C.3       1 <0>        -0.0871
     17 C17         5.7185    8.5126   -4.1803 C.3       1 <0>        -0.0716
     18 C18         7.4589    5.1398   -4.3541 C.3       1 <0>         0.1333
     19 C19         6.3195    7.2447   -4.8112 C.3       1 <0>         0.1246
     20 C20         5.8189    4.6139   -2.6998 C.3       1 <0>         0.0606
     21 C21         3.5216    0.1899   -1.0153 C.3       1 <0>         0.1012
     22 C22         5.5566    8.4542   -2.6431 C.3       1 <0>         0.1554
     23 C23         4.4821    9.4467   -2.1852 C.3       1 <0>        -0.0356
     24 C24         7.6485    3.7409    2.8432 C.3       1 <0>        -0.0795
     25 C25         8.7834    2.7415    2.5910 C.3       1 <0>        -0.1203
     26 C26         6.9719    4.2276    1.5544 C.3       1 <0>        -0.0920
     27 C27         9.4756    2.2762    3.8718 C.3       1 <0>         0.1502
     28 C28         6.2906    3.1130    0.7514 C.3       1 <0>         0.0224
     29 N1          5.9858    6.0487   -2.8308 N.am      1 <0>        -0.3553
     30 N2          6.9481    6.4032   -3.7946 N.3       1 <0>        -0.4320
     31 N3          6.8203    8.7957   -1.9738 N.3       1 <0>        -0.9031
     32 N4         10.5526    1.3450    3.5523 N.3       1 <0>        -0.9068
     33 N5          4.4695    0.8988   -0.1529 N.am      1 <0>        -0.5526
     34 N6          5.7762    3.5917   -0.5046 N.am      1 <0>        -0.5576
     35 O1          4.3619    6.7750   -1.3592 O.2       1 <0>        -0.6710
     36 O2          5.3022    2.1819    2.7699 O.2       1 <0>        -0.4901
     37 O3          2.9489    2.0822    1.1900 O.2       1 <0>        -0.5902
     38 O4          7.7705    4.4014   -1.3956 O.2       1 <0>        -0.5833
     39 H1          5.6663   14.4486   -3.7294 H         1 <0>         0.1320
     40 H2          6.4640   13.6058   -1.5368 H         1 <0>         0.1324
     41 H3          4.3212   12.9796   -5.2084 H         1 <0>         0.1328
     42 H4          5.9211   11.3020   -0.8206 H         1 <0>         0.1324
     43 H5          3.7727   10.6741   -4.5015 H         1 <0>         0.1434
     44 H6          4.1729   -0.7122   -4.2240 H         1 <0>         0.0405
     45 H7          5.8027   -0.0446   -4.2501 H         1 <0>         0.0421
     46 H8          5.1542    1.7772   -2.7482 H         1 <0>         0.0362
     47 H9          4.0371    1.7257   -4.1075 H         1 <0>         0.0439
     48 H10         5.5975   -2.0280   -2.7352 H         1 <0>         0.0350
     49 H11         6.1350   -0.5837   -1.8849 H         1 <0>         0.0428
     50 H12         2.8539    2.0404   -1.9345 H         1 <0>         0.0663
     51 H13         2.3414    0.5806   -2.7774 H         1 <0>         0.0466
     52 H14         3.3114   -1.7547   -1.9241 H         1 <0>         0.0493
     53 H15         4.4214   -1.7321   -0.5559 H         1 <0>         0.0520
     54 H16         5.6709    4.0073   -4.7535 H         1 <0>         0.0915
     55 H17         6.8936    3.0840   -3.8511 H         1 <0>         0.0601
     56 H18         6.3330    9.3815   -4.4524 H         1 <0>         0.0688
     57 H19         4.7383    8.6848   -4.6454 H         1 <0>         0.0630
     58 H20         8.4170    4.9158   -3.8698 H         1 <0>         0.0807
     59 H21         7.6408    5.1703   -5.4340 H         1 <0>         0.0380
     60 H22         5.5257    6.6966   -5.3375 H         1 <0>         0.0484
     61 H23         7.0554    7.5409   -5.5683 H         1 <0>         0.0697
     62 H24         4.7652    4.3476   -2.5772 H         1 <0>         0.0843
     63 H25         2.6216    0.0369   -0.4106 H         1 <0>         0.0831
     64 H26         4.3919    9.3954   -1.0986 H         1 <0>         0.0704
     65 H27         3.5182    9.1401   -2.5956 H         1 <0>         0.0718
     66 H28         6.9060    3.2476    3.4811 H         1 <0>         0.0606
     67 H29         8.0377    4.5939    3.4113 H         1 <0>         0.0458
     68 H30         8.3582    1.8719    2.0729 H         1 <0>         0.0375
     69 H31         9.5177    3.1863    1.9076 H         1 <0>         0.0392
     70 H32         7.7210    4.7221    0.9235 H         1 <0>         0.0606
     71 H33         6.2174    4.9831    1.8035 H         1 <0>         0.0579
     72 H34         8.7558    1.7847    4.5352 H         1 <0>         0.0571
     73 H35         9.9032    3.1267    4.4108 H         1 <0>         0.0503
     74 H36         7.0421    2.3587    0.4881 H         1 <0>         0.0993
     75 H37         7.6658    8.5036   -2.4065 H         1 <0>         0.3700
     76 H38         6.7736    9.1160   -1.0343 H         1 <0>         0.3660
     77 H39        11.0073    0.8756    4.3059 H         1 <0>         0.3465
     78 H40        10.9302    1.3617    2.6291 H         1 <0>         0.3446
     79 H41         5.4635    0.7487   -0.2981 H         1 <0>         0.3148
     80 H42         4.7816    3.4809   -0.6931 H         1 <0>         0.3220
@<TRIPOS>BOND
     1    1    2 ar
     2    1    3 ar
     3    2    4 ar
     4    3    5 ar
     5    4    6 ar
     6    5    6 ar
     7    6   23 1
     8    7   22 1
     9    7   29 am
    10    7   35 2
    11    8    9 1
    12    8   28 1
    13    8   36 2
    14    9   33 am
    15    9   37 2
    16   10   20 1
    17   10   34 am
    18   10   38 2
    19   11   12 1
    20   11   13 1
    21   12   14 1
    22   13   15 1
    23   14   21 1
    24   15   21 1
    25   16   18 1
    26   16   20 1
    27   17   19 1
    28   17   22 1
    29   18   30 1
    30   19   30 1
    31   20   29 1
    32   21   33 1
    33   22   23 1
    34   22   31 1
    35   24   25 1
    36   24   26 1
    37   25   27 1
    38   26   28 1
    39   27   32 1
    40   28   34 1
    41   29   30 1
    42    1   39 1
    43    2   40 1
    44    3   41 1
    45    4   42 1
    46    5   43 1
    47   11   44 1
    48   11   45 1
    49   12   46 1
    50   12   47 1
    51   13   48 1
    52   13   49 1
    53   14   50 1
    54   14   51 1
    55   15   52 1
    56   15   53 1
    57   16   54 1
    58   16   55 1
    59   17   56 1
    60   17   57 1
    61   18   58 1
    62   18   59 1
    63   19   60 1
    64   19   61 1
    65   20   62 1
    66   21   63 1
    67   23   64 1
    68   23   65 1
    69   24   66 1
    70   24   67 1
    71   25   68 1
    72   25   69 1
    73   26   70 1
    74   26   71 1
    75   27   72 1
    76   27   73 1
    77   28   74 1
    78   31   75 1
    79   31   76 1
    80   32   77 1
    81   32   78 1
    82   33   79 1
    83   34   80 1
@<TRIPOS>MOLECULE
1a46_ligand_322
   80    83     0     0     0
SMALL
USER_CHARGES

mmff94s_NoEstat = 88.76
@<TRIPOS>ATOM
      1 C1         -4.4072   -3.0319  -14.4211 C.ar      1 <0>        -0.1300
      2 C2         -3.1014   -2.5683  -14.5810 C.ar      1 <0>        -0.1323
      3 C3         -5.2666   -2.3997  -13.5224 C.ar      1 <0>        -0.1309
      4 C4         -2.6549   -1.4727  -13.8421 C.ar      1 <0>        -0.1275
      5 C5         -4.8200   -1.3041  -12.7835 C.ar      1 <0>        -0.1272
      6 C6         -3.5171   -0.8478  -12.9482 C.ar      1 <0>        -0.0843
      7 C7         -1.9267    1.0916  -10.0042 C.2       1 <0>         0.6709
      8 C8          2.7796    3.2097   -6.1637 C.2       1 <0>         0.4867
      9 C9          4.2189    2.8058   -6.2975 C.2       1 <0>         0.5883
     10 C10         0.2181    1.9581   -7.7739 C.2       1 <0>         0.6572
     11 C11         8.9574    4.6316   -8.2669 C.3       1 <0>        -0.0802
     12 C12         8.1536    3.5709   -9.0136 C.3       1 <0>        -0.0765
     13 C13         8.7003    4.5785   -6.7636 C.3       1 <0>        -0.0774
     14 C14         6.6623    3.6664   -8.6959 C.3       1 <0>        -0.0953
     15 C15         7.2097    4.6760   -6.4434 C.3       1 <0>        -0.0906
     16 C16        -1.6423    1.0361   -6.3687 C.3       1 <0>        -0.0871
     17 C17        -3.4475   -0.9240   -9.9997 C.3       1 <0>        -0.0716
     18 C18        -1.5606   -0.4439   -6.7372 C.3       1 <0>         0.1333
     19 C19        -3.1819   -0.9495   -8.4846 C.3       1 <0>         0.1246
     20 C20        -1.2590    1.7411   -7.6524 C.3       1 <0>         0.0606
     21 C21         6.4079    3.6013   -7.1859 C.3       1 <0>         0.1012
     22 C22        -2.4199   -0.1108  -10.8216 C.3       1 <0>         0.1554
     23 C23        -3.0368    0.3307  -12.1535 C.3       1 <0>        -0.0356
     24 C24         1.5857    6.0302   -6.5865 C.3       1 <0>        -0.0795
     25 C25         1.6811    7.5259   -6.9095 C.3       1 <0>        -0.1203
     26 C26         2.1570    5.1335   -7.6933 C.3       1 <0>        -0.0920
     27 C27         1.0885    8.4192   -5.8200 C.3       1 <0>         0.1502
     28 C28         2.0196    3.6328   -7.4097 C.3       1 <0>         0.0224
     29 N1         -1.6352    0.7917   -8.6825 N.am      1 <0>        -0.3553
     30 N2         -1.8196   -0.5121   -8.1858 N.3       1 <0>        -0.4320
     31 N3         -1.2259   -0.9195  -11.1076 N.3       1 <0>        -0.9031
     32 N4          1.8018    8.2205   -4.5627 N.3       1 <0>        -0.9068
     33 N5          4.9815    3.7697   -6.9148 N.am      1 <0>        -0.5526
     34 N6          0.6426    3.2153   -7.3763 N.am      1 <0>        -0.5576
     35 O1         -1.7935    2.2123  -10.4955 O.2       1 <0>        -0.6710
     36 O2          2.3266    3.2509   -5.0269 O.2       1 <0>        -0.4901
     37 O3          4.5449    1.7053   -5.8835 O.2       1 <0>        -0.5902
     38 O4          0.9290    1.0536   -8.1959 O.2       1 <0>        -0.5833
     39 H1         -4.7549   -3.8850  -14.9963 H         1 <0>         0.1320
     40 H2         -2.4324   -3.0606  -15.2808 H         1 <0>         0.1324
     41 H3         -6.2832   -2.7609  -13.3979 H         1 <0>         0.1328
     42 H4         -1.6358   -1.1186  -13.9733 H         1 <0>         0.1324
     43 H5         -5.4966   -0.8180  -12.0857 H         1 <0>         0.1434
     44 H6         10.0262    4.4906   -8.4634 H         1 <0>         0.0405
     45 H7          8.6904    5.6254   -8.6472 H         1 <0>         0.0421
     46 H8          8.3083    3.6830  -10.0927 H         1 <0>         0.0362
     47 H9          8.5208    2.5741   -8.7399 H         1 <0>         0.0439
     48 H10         9.0997    3.6413   -6.3570 H         1 <0>         0.0350
     49 H11         9.2374    5.3957   -6.2690 H         1 <0>         0.0428
     50 H12         6.2622    4.6041   -9.1037 H         1 <0>         0.0663
     51 H13         6.1256    2.8545   -9.2015 H         1 <0>         0.0466
     52 H14         7.0586    4.5754   -5.3617 H         1 <0>         0.0493
     53 H15         6.8425    5.6740   -6.7168 H         1 <0>         0.0520
     54 H16        -2.6779    1.2865   -6.1074 H         1 <0>         0.0915
     55 H17        -0.9998    1.2887   -5.5196 H         1 <0>         0.0601
     56 H18        -3.4897   -1.9539  -10.3797 H         1 <0>         0.0688
     57 H19        -4.4523   -0.5086  -10.1558 H         1 <0>         0.0630
     58 H20        -0.5419   -0.8072   -6.5560 H         1 <0>         0.0807
     59 H21        -2.2364   -1.0589   -6.1327 H         1 <0>         0.0380
     60 H22        -3.9187   -0.3080   -7.9817 H         1 <0>         0.0484
     61 H23        -3.3442   -1.9688   -8.1140 H         1 <0>         0.0697
     62 H24        -1.7661    2.6997   -7.7936 H         1 <0>         0.0843
     63 H25         6.6777    2.6089   -6.8066 H         1 <0>         0.0831
     64 H26        -2.2923    0.8934  -12.7197 H         1 <0>         0.0704
     65 H27        -3.8625    1.0157  -11.9521 H         1 <0>         0.0718
     66 H28         2.1358    5.8550   -5.6547 H         1 <0>         0.0606
     67 H29         0.5392    5.7688   -6.3906 H         1 <0>         0.0458
     68 H30         2.7419    7.7748   -7.0444 H         1 <0>         0.0375
     69 H31         1.1870    7.7255   -7.8687 H         1 <0>         0.0392
     70 H32         3.2164    5.3787   -7.8393 H         1 <0>         0.0606
     71 H33         1.6466    5.3535   -8.6384 H         1 <0>         0.0579
     72 H34         0.0275    8.1885   -5.6755 H         1 <0>         0.0571
     73 H35         1.1682    9.4739   -6.0992 H         1 <0>         0.0503
     74 H36         2.4714    3.0747   -8.2388 H         1 <0>         0.0993
     75 H37        -0.9249   -1.5612  -10.4112 H         1 <0>         0.3700
     76 H38        -0.6609   -0.6518  -11.8799 H         1 <0>         0.3660
     77 H39         1.4387    8.6562   -3.7421 H         1 <0>         0.3465
     78 H40         2.7216    7.8360   -4.5996 H         1 <0>         0.3446
     79 H41         4.5336    4.6372   -7.1947 H         1 <0>         0.3148
     80 H42        -0.0552    3.8781   -7.0434 H         1 <0>         0.3220
@<TRIPOS>BOND
     1    1    2 ar
     2    1    3 ar
     3    2    4 ar
     4    3    5 ar
     5    4    6 ar
     6    5    6 ar
     7    6   23 1
     8    7   22 1
     9    7   29 am
    10    7   35 2
    11    8    9 1
    12    8   28 1
    13    8   36 2
    14    9   33 am
    15    9   37 2
    16   10   20 1
    17   10   34 am
    18   10   38 2
    19   11   12 1
    20   11   13 1
    21   12   14 1
    22   13   15 1
    23   14   21 1
    24   15   21 1
    25   16   18 1
    26   16   20 1
    27   17   19 1
    28   17   22 1
    29   18   30 1
    30   19   30 1
    31   20   29 1
    32   21   33 1
    33   22   23 1
    34   22   31 1
    35   24   25 1
    36   24   26 1
    37   25   27 1
    38   26   28 1
    39   27   32 1
    40   28   34 1
    41   29   30 1
    42    1   39 1
    43    2   40 1
    44    3   41 1
    45    4   42 1
    46    5   43 1
    47   11   44 1
    48   11   45 1
    49   12   46 1
    50   12   47 1
    51   13   48 1
    52   13   49 1
    53   14   50 1
    54   14   51 1
    55   15   52 1
    56   15   53 1
    57   16   54 1
    58   16   55 1
    59   17   56 1
    60   17   57 1
    61   18   58 1
    62   18   59 1
    63   19   60 1
    64   19   61 1
    65   20   62 1
    66   21   63 1
    67   23   64 1
    68   23   65 1
    69   24   66 1
    70   24   67 1
    71   25   68 1
    72   25   69 1
    73   26   70 1
    74   26   71 1
    75   27   72 1
    76   27   73 1
    77   28   74 1
    78   31   75 1
    79   31   76 1
    80   32   77 1
    81   32   78 1
    82   33   79 1
    83   34   80 1
@<TRIPOS>MOLECULE
1a46_ligand_323
   80    83     0     0     0
SMALL
USER_CHARGES

mmff94s_NoEstat = 88.78
@<TRIPOS>ATOM
      1 C1         11.0121    9.2104   -7.9325 C.ar      1 <0>        -0.1300
      2 C2         11.5385    8.8832   -6.6829 C.ar      1 <0>        -0.1323
      3 C3          9.6345    9.1559   -8.1449 C.ar      1 <0>        -0.1309
      4 C4         10.6874    8.5015   -5.6458 C.ar      1 <0>        -0.1275
      5 C5          8.7834    8.7742   -7.1078 C.ar      1 <0>        -0.1272
      6 C6          9.3154    8.4495   -5.8650 C.ar      1 <0>        -0.0843
      7 C7          7.2411    6.0968   -3.6024 C.2       1 <0>         0.6709
      8 C8          5.2358    2.3798    1.5634 C.2       1 <0>         0.4867
      9 C9          5.6522    1.1980    2.3894 C.2       1 <0>         0.5883
     10 C10         6.5256    3.6321   -1.6689 C.2       1 <0>         0.6572
     11 C11         9.3963    1.9512    5.6601 C.3       1 <0>        -0.0802
     12 C12         9.6041    1.5556    4.2006 C.3       1 <0>        -0.0765
     13 C13         7.9196    2.1484    5.9921 C.3       1 <0>        -0.0774
     14 C14         8.7694    0.3303    3.8254 C.3       1 <0>        -0.0953
     15 C15         7.0890    0.9216    5.6130 C.3       1 <0>        -0.0906
     16 C16         5.2113    3.0694   -3.7284 C.3       1 <0>        -0.0871
     17 C17         7.6012    6.0599   -6.1012 C.3       1 <0>        -0.0716
     18 C18         6.3446    2.7580   -4.7039 C.3       1 <0>         0.1333
     19 C19         6.8355    4.7264   -6.0536 C.3       1 <0>         0.1246
     20 C20         5.7868    4.1659   -2.8575 C.3       1 <0>         0.0606
     21 C21         7.2794    0.5030    4.1490 C.3       1 <0>         0.1012
     22 C22         8.1773    6.5224   -4.7422 C.3       1 <0>         0.1554
     23 C23         8.4000    8.0389   -4.7494 C.3       1 <0>        -0.0356
     24 C24         8.0800    4.9598    0.7851 C.3       1 <0>        -0.0795
     25 C25         8.7880    6.0338    1.6192 C.3       1 <0>        -0.1203
     26 C26         6.9719    4.2276    1.5544 C.3       1 <0>        -0.0920
     27 C27         9.9095    6.7454    0.8629 C.3       1 <0>         0.1502
     28 C28         6.2906    3.1130    0.7514 C.3       1 <0>         0.0224
     29 N1          6.7674    4.7991   -3.7183 N.am      1 <0>        -0.3553
     30 N2          7.1280    4.0001   -4.8193 N.3       1 <0>        -0.4320
     31 N3          9.4643    5.8648   -4.4722 N.3       1 <0>        -0.9031
     32 N4          9.3732    7.4215   -0.3138 N.3       1 <0>        -0.9068
     33 N5          6.6784    1.4957    3.2556 N.am      1 <0>        -0.5526
     34 N6          5.7762    3.5917   -0.5046 N.am      1 <0>        -0.5576
     35 O1          6.9567    6.8465   -2.6685 O.2       1 <0>        -0.6710
     36 O2          4.0675    2.7325    1.6631 O.2       1 <0>        -0.4901
     37 O3          5.0785    0.1378    2.2009 O.2       1 <0>        -0.5902
     38 O4          7.6924    3.2783   -1.7917 O.2       1 <0>        -0.5833
     39 H1         11.6747    9.5075   -8.7400 H         1 <0>         0.1320
     40 H2         12.6111    8.9257   -6.5176 H         1 <0>         0.1324
     41 H3          9.2248    9.4105   -9.1180 H         1 <0>         0.1328
     42 H4         11.1066    8.2484   -4.6756 H         1 <0>         0.1324
     43 H5          7.7115    8.7346   -7.2826 H         1 <0>         0.1434
     44 H6          9.8128    1.1714    6.3098 H         1 <0>         0.0405
     45 H7          9.9491    2.8728    5.8749 H         1 <0>         0.0421
     46 H8          9.3379    2.3987    3.5518 H         1 <0>         0.0362
     47 H9         10.6652    1.3440    4.0252 H         1 <0>         0.0439
     48 H10         7.8079    2.3501    7.0636 H         1 <0>         0.0350
     49 H11         7.5407    3.0309    5.4626 H         1 <0>         0.0428
     50 H12         8.9014    0.1181    2.7575 H         1 <0>         0.0663
     51 H13         9.1535   -0.5403    4.3721 H         1 <0>         0.0466
     52 H14         7.3764    0.0850    6.2626 H         1 <0>         0.0493
     53 H15         6.0303    1.1285    5.8113 H         1 <0>         0.0520
     54 H16         4.3507    3.4578   -4.2870 H         1 <0>         0.0915
     55 H17         4.8908    2.1856   -3.1683 H         1 <0>         0.0601
     56 H18         8.4120    5.9885   -6.8390 H         1 <0>         0.0688
     57 H19         6.9149    6.8257   -6.4876 H         1 <0>         0.0630
     58 H20         6.9926    1.9855   -4.2725 H         1 <0>         0.0807
     59 H21         5.9735    2.3729   -5.6602 H         1 <0>         0.0380
     60 H22         5.7592    4.9288   -6.1435 H         1 <0>         0.0484
     61 H23         7.1185    4.1245   -6.9255 H         1 <0>         0.0697
     62 H24         5.0406    4.8864   -2.5107 H         1 <0>         0.0843
     63 H25         6.7466   -0.4344    3.9582 H         1 <0>         0.0831
     64 H26         8.8151    8.3408   -3.7861 H         1 <0>         0.0704
     65 H27         7.4343    8.5386   -4.8464 H         1 <0>         0.0718
     66 H28         7.6494    5.4516   -0.0948 H         1 <0>         0.0606
     67 H29         8.8216    4.2418    0.4157 H         1 <0>         0.0458
     68 H30         8.0356    6.7709    1.9287 H         1 <0>         0.0375
     69 H31         9.1825    5.5824    2.5383 H         1 <0>         0.0392
     70 H32         6.2171    4.9575    1.8728 H         1 <0>         0.0606
     71 H33         7.3929    3.7874    2.4660 H         1 <0>         0.0579
     72 H34        10.6735    6.0252    0.5509 H         1 <0>         0.0571
     73 H35        10.3920    7.4923    1.5001 H         1 <0>         0.0503
     74 H36         7.0421    2.3587    0.4881 H         1 <0>         0.0993
     75 H37         9.5764    4.9261   -4.7778 H         1 <0>         0.3700
     76 H38        10.0811    6.3037   -3.8286 H         1 <0>         0.3660
     77 H39        10.0182    7.8250   -0.9589 H         1 <0>         0.3465
     78 H40         8.3988    7.6342   -0.3305 H         1 <0>         0.3446
     79 H41         7.0352    2.4464    3.2766 H         1 <0>         0.3148
     80 H42         4.8120    3.9176   -0.5391 H         1 <0>         0.3220
@<TRIPOS>BOND
     1    1    2 ar
     2    1    3 ar
     3    2    4 ar
     4    3    5 ar
     5    4    6 ar
     6    5    6 ar
     7    6   23 1
     8    7   22 1
     9    7   29 am
    10    7   35 2
    11    8    9 1
    12    8   28 1
    13    8   36 2
    14    9   33 am
    15    9   37 2
    16   10   20 1
    17   10   34 am
    18   10   38 2
    19   11   12 1
    20   11   13 1
    21   12   14 1
    22   13   15 1
    23   14   21 1
    24   15   21 1
    25   16   18 1
    26   16   20 1
    27   17   19 1
    28   17   22 1
    29   18   30 1
    30   19   30 1
    31   20   29 1
    32   21   33 1
    33   22   23 1
    34   22   31 1
    35   24   25 1
    36   24   26 1
    37   25   27 1
    38   26   28 1
    39   27   32 1
    40   28   34 1
    41   29   30 1
    42    1   39 1
    43    2   40 1
    44    3   41 1
    45    4   42 1
    46    5   43 1
    47   11   44 1
    48   11   45 1
    49   12   46 1
    50   12   47 1
    51   13   48 1
    52   13   49 1
    53   14   50 1
    54   14   51 1
    55   15   52 1
    56   15   53 1
    57   16   54 1
    58   16   55 1
    59   17   56 1
    60   17   57 1
    61   18   58 1
    62   18   59 1
    63   19   60 1
    64   19   61 1
    65   20   62 1
    66   21   63 1
    67   23   64 1
    68   23   65 1
    69   24   66 1
    70   24   67 1
    71   25   68 1
    72   25   69 1
    73   26   70 1
    74   26   71 1
    75   27   72 1
    76   27   73 1
    77   28   74 1
    78   31   75 1
    79   31   76 1
    80   32   77 1
    81   32   78 1
    82   33   79 1
    83   34   80 1
@<TRIPOS>MOLECULE
1a46_ligand_324
   80    83     0     0     0
SMALL
USER_CHARGES

mmff94s_NoEstat = 88.83
@<TRIPOS>ATOM
      1 C1          9.3778    1.4071  -10.5376 C.ar      1 <0>        -0.1300
      2 C2         10.0902    1.0682   -9.3873 C.ar      1 <0>        -0.1323
      3 C3          8.4252    2.4251  -10.4935 C.ar      1 <0>        -0.1309
      4 C4          9.8499    1.7472   -8.1928 C.ar      1 <0>        -0.1275
      5 C5          8.1849    3.1040   -9.2989 C.ar      1 <0>        -0.1272
      6 C6          8.8988    2.7607   -8.1564 C.ar      1 <0>        -0.0843
      7 C7          7.2708    3.5496   -4.7381 C.2       1 <0>         0.6709
      8 C8          5.2358    2.3798    1.5634 C.2       1 <0>         0.4867
      9 C9          3.8230    2.3549    1.0577 C.2       1 <0>         0.5883
     10 C10         6.2126    3.1256   -1.7338 C.2       1 <0>         0.6572
     11 C11         1.4181    6.7678    0.8940 C.3       1 <0>        -0.0802
     12 C12         1.4560    5.8610    2.1213 C.3       1 <0>        -0.0765
     13 C13         2.2461    6.2031   -0.2573 C.3       1 <0>        -0.0774
     14 C14         1.0454    4.4289    1.7758 C.3       1 <0>        -0.0953
     15 C15         1.8333    4.7703   -0.5974 C.3       1 <0>        -0.0906
     16 C16         4.0677    3.4116   -2.9998 C.3       1 <0>        -0.0871
     17 C17         6.2374    2.7118   -6.8841 C.3       1 <0>        -0.0716
     18 C18         4.0600    2.1270   -3.8260 C.3       1 <0>         0.1333
     19 C19         4.9528    2.5709   -6.0494 C.3       1 <0>         0.1246
     20 C20         5.5372    3.7637   -2.9085 C.3       1 <0>         0.0606
     21 C21         1.8637    3.8371    0.6204 C.3       1 <0>         0.1012
     22 C22         7.5393    2.8062   -6.0542 C.3       1 <0>         0.1554
     23 C23         8.6404    3.4910   -6.8715 C.3       1 <0>        -0.0356
     24 C24         6.0158    5.3379    2.0114 C.3       1 <0>        -0.0795
     25 C25         6.7209    6.4716    2.7653 C.3       1 <0>        -0.1203
     26 C26         6.9719    4.2276    1.5544 C.3       1 <0>        -0.0920
     27 C27         7.4119    6.0077    4.0472 C.3       1 <0>         0.1502
     28 C28         6.2906    3.1130    0.7514 C.3       1 <0>         0.0224
     29 N1          6.1017    3.1624   -4.1017 N.am      1 <0>        -0.3553
     30 N2          5.2634    2.1873   -4.6736 N.3       1 <0>        -0.4320
     31 N3          8.0097    1.4670   -5.6708 N.3       1 <0>        -0.9031
     32 N4          8.0424    7.1400    4.7175 N.3       1 <0>        -0.9068
     33 N5          3.2455    3.6032    1.0456 N.am      1 <0>        -0.5526
     34 N6          5.7762    3.5917   -0.5046 N.am      1 <0>        -0.5576
     35 O1          8.0408    4.4006   -4.2931 O.2       1 <0>        -0.6710
     36 O2          5.4669    1.7271    2.5732 O.2       1 <0>        -0.4901
     37 O3          3.3466    1.2762    0.7444 O.2       1 <0>        -0.5902
     38 O4          7.0689    2.2691   -1.9210 O.2       1 <0>        -0.5833
     39 H1          9.5648    0.8784  -11.4677 H         1 <0>         0.1320
     40 H2         10.8319    0.2756   -9.4218 H         1 <0>         0.1324
     41 H3          7.8704    2.6887  -11.3892 H         1 <0>         0.1328
     42 H4         10.4098    1.4763   -7.3016 H         1 <0>         0.1324
     43 H5          7.4407    3.8957   -9.2740 H         1 <0>         0.1434
     44 H6          0.3784    6.8907    0.5662 H         1 <0>         0.0405
     45 H7          1.7877    7.7645    1.1601 H         1 <0>         0.0421
     46 H8          2.4665    5.8646    2.5474 H         1 <0>         0.0362
     47 H9          0.7860    6.2585    2.8922 H         1 <0>         0.0439
     48 H10         2.1267    6.8389   -1.1420 H         1 <0>         0.0350
     49 H11         3.3094    6.2291    0.0101 H         1 <0>         0.0428
     50 H12         1.1447    3.8004    2.6691 H         1 <0>         0.0663
     51 H13        -0.0166    4.4224    1.4992 H         1 <0>         0.0466
     52 H14         0.8166    4.7834   -1.0104 H         1 <0>         0.0493
     53 H15         2.4912    4.3837   -1.3851 H         1 <0>         0.0520
     54 H16         3.5352    4.1976   -3.5496 H         1 <0>         0.0915
     55 H17         3.5853    3.2820   -2.0262 H         1 <0>         0.0601
     56 H18         6.3096    1.8704   -7.5867 H         1 <0>         0.0688
     57 H19         6.1343    3.6107   -7.5070 H         1 <0>         0.0630
     58 H20         4.1583    1.2642   -3.1562 H         1 <0>         0.0807
     59 H21         3.1259    1.9993   -4.3842 H         1 <0>         0.0380
     60 H22         4.4028    3.5219   -6.0765 H         1 <0>         0.0484
     61 H23         4.3072    1.8183   -6.5178 H         1 <0>         0.0697
     62 H24         5.7284    4.8402   -2.8795 H         1 <0>         0.0843
     63 H25         1.4635    2.8554    0.3463 H         1 <0>         0.0831
     64 H26         9.5506    3.5379   -6.2709 H         1 <0>         0.0704
     65 H27         8.3431    4.5219   -7.0731 H         1 <0>         0.0718
     66 H28         5.2579    4.9142    2.6804 H         1 <0>         0.0606
     67 H29         5.4809    5.7546    1.1500 H         1 <0>         0.0458
     68 H30         7.4668    6.9122    2.0910 H         1 <0>         0.0375
     69 H31         5.9973    7.2642    2.9945 H         1 <0>         0.0392
     70 H32         7.4599    3.7926    2.4354 H         1 <0>         0.0606
     71 H33         7.7645    4.6634    0.9347 H         1 <0>         0.0579
     72 H34         8.1719    5.2532    3.8170 H         1 <0>         0.0571
     73 H35         6.6895    5.5581    4.7347 H         1 <0>         0.0503
     74 H36         7.0421    2.3587    0.4881 H         1 <0>         0.0993
     75 H37         7.3242    0.7786   -5.4626 H         1 <0>         0.3700
     76 H38         8.9706    1.3637   -5.4396 H         1 <0>         0.3660
     77 H39         8.6273    6.9547    5.5039 H         1 <0>         0.3465
     78 H40         7.7128    8.0567    4.5024 H         1 <0>         0.3446
     79 H41         3.8022    4.3983    1.3448 H         1 <0>         0.3148
     80 H42         5.0545    4.3100   -0.4888 H         1 <0>         0.3220
@<TRIPOS>BOND
     1    1    2 ar
     2    1    3 ar
     3    2    4 ar
     4    3    5 ar
     5    4    6 ar
     6    5    6 ar
     7    6   23 1
     8    7   22 1
     9    7   29 am
    10    7   35 2
    11    8    9 1
    12    8   28 1
    13    8   36 2
    14    9   33 am
    15    9   37 2
    16   10   20 1
    17   10   34 am
    18   10   38 2
    19   11   12 1
    20   11   13 1
    21   12   14 1
    22   13   15 1
    23   14   21 1
    24   15   21 1
    25   16   18 1
    26   16   20 1
    27   17   19 1
    28   17   22 1
    29   18   30 1
    30   19   30 1
    31   20   29 1
    32   21   33 1
    33   22   23 1
    34   22   31 1
    35   24   25 1
    36   24   26 1
    37   25   27 1
    38   26   28 1
    39   27   32 1
    40   28   34 1
    41   29   30 1
    42    1   39 1
    43    2   40 1
    44    3   41 1
    45    4   42 1
    46    5   43 1
    47   11   44 1
    48   11   45 1
    49   12   46 1
    50   12   47 1
    51   13   48 1
    52   13   49 1
    53   14   50 1
    54   14   51 1
    55   15   52 1
    56   15   53 1
    57   16   54 1
    58   16   55 1
    59   17   56 1
    60   17   57 1
    61   18   58 1
    62   18   59 1
    63   19   60 1
    64   19   61 1
    65   20   62 1
    66   21   63 1
    67   23   64 1
    68   23   65 1
    69   24   66 1
    70   24   67 1
    71   25   68 1
    72   25   69 1
    73   26   70 1
    74   26   71 1
    75   27   72 1
    76   27   73 1
    77   28   74 1
    78   31   75 1
    79   31   76 1
    80   32   77 1
    81   32   78 1
    82   33   79 1
    83   34   80 1
@<TRIPOS>MOLECULE
1a46_ligand_325
   80    83     0     0     0
SMALL
USER_CHARGES

mmff94s_NoEstat = 88.85
@<TRIPOS>ATOM
      1 C1         11.2165    5.1344   -9.5699 C.ar      1 <0>        -0.1300
      2 C2         11.8039    4.7828   -8.3546 C.ar      1 <0>        -0.1323
      3 C3          9.9328    5.6797   -9.5922 C.ar      1 <0>        -0.1309
      4 C4         11.1077    4.9765   -7.1616 C.ar      1 <0>        -0.1275
      5 C5          9.2366    5.8734   -8.3991 C.ar      1 <0>        -0.1272
      6 C6          9.8285    5.5206   -7.1916 C.ar      1 <0>        -0.0843
      7 C7          7.4784    4.7027   -4.2310 C.2       1 <0>         0.6709
      8 C8          5.2358    2.3798    1.5634 C.2       1 <0>         0.4867
      9 C9          4.0737    1.7586    0.8450 C.2       1 <0>         0.5883
     10 C10         6.2126    3.1256   -1.7338 C.2       1 <0>         0.6572
     11 C11         1.7926   -2.0333    3.0392 C.3       1 <0>        -0.0802
     12 C12         2.8691   -2.0092    1.9574 C.3       1 <0>        -0.0765
     13 C13         1.4148   -0.6275    3.4983 C.3       1 <0>        -0.0774
     14 C14         2.4660   -1.1175    0.7822 C.3       1 <0>        -0.0953
     15 C15         1.0147    0.2608    2.3194 C.3       1 <0>        -0.0906
     16 C16         4.3868    2.9365   -3.4414 C.3       1 <0>        -0.0871
     17 C17         7.2608    4.1580   -6.6868 C.3       1 <0>        -0.0716
     18 C18         5.0537    2.0131   -4.4592 C.3       1 <0>         0.1333
     19 C19         6.0339    3.3363   -6.2552 C.3       1 <0>         0.1246
     20 C20         5.5372    3.7637   -2.9085 C.3       1 <0>         0.0606
     21 C21         2.0813    0.3030    1.2170 C.3       1 <0>         0.1012
     22 C22         8.2469    4.4948   -5.5436 C.3       1 <0>         0.1554
     23 C23         9.0796    5.7289   -5.9083 C.3       1 <0>        -0.0356
     24 C24         6.0158    5.3379    2.0114 C.3       1 <0>        -0.0795
     25 C25         6.7209    6.4716    2.7653 C.3       1 <0>        -0.1203
     26 C26         6.9719    4.2276    1.5544 C.3       1 <0>        -0.0920
     27 C27         5.7742    7.5909    3.1979 C.3       1 <0>         0.1502
     28 C28         6.2906    3.1130    0.7514 C.3       1 <0>         0.0224
     29 N1          6.4904    3.7576   -4.0019 N.am      1 <0>        -0.3553
     30 N2          6.2438    2.7368   -4.9387 N.3       1 <0>        -0.4320
     31 N3          9.1632    3.3713   -5.2994 N.3       1 <0>        -0.9031
     32 N4          4.7531    7.0666    4.0988 N.3       1 <0>        -0.9068
     33 N5          3.2649    1.0281    1.6841 N.am      1 <0>        -0.5526
     34 N6          5.7762    3.5917   -0.5046 N.am      1 <0>        -0.5576
     35 O1          7.7368    5.6223   -3.4546 O.2       1 <0>        -0.6710
     36 O2          5.3022    2.1819    2.7699 O.2       1 <0>        -0.4901
     37 O3          3.9822    1.9394   -0.3582 O.2       1 <0>        -0.5902
     38 O4          7.0689    2.2691   -1.9210 O.2       1 <0>        -0.5833
     39 H1         11.7586    4.9835  -10.4989 H         1 <0>         0.1320
     40 H2         12.8034    4.3582   -8.3374 H         1 <0>         0.1324
     41 H3          9.4755    5.9533  -10.5385 H         1 <0>         0.1328
     42 H4         11.5733    4.6996   -6.2195 H         1 <0>         0.1324
     43 H5          8.2369    6.2989   -8.4262 H         1 <0>         0.1434
     44 H6          0.9001   -2.5398    2.6511 H         1 <0>         0.0405
     45 H7          2.1436   -2.6194    3.8961 H         1 <0>         0.0421
     46 H8          3.8122   -1.6516    2.3880 H         1 <0>         0.0362
     47 H9          3.0515   -3.0286    1.5983 H         1 <0>         0.0439
     48 H10         0.5852   -0.6849    4.2123 H         1 <0>         0.0350
     49 H11         2.2609   -0.1774    4.0315 H         1 <0>         0.0428
     50 H12         3.2898   -1.0805    0.0591 H         1 <0>         0.0663
     51 H13         1.6118   -1.5754    0.2674 H         1 <0>         0.0466
     52 H14         0.0770   -0.1178    1.8931 H         1 <0>         0.0493
     53 H15         0.8108    1.2743    2.6856 H         1 <0>         0.0520
     54 H16         3.6738    3.5897   -3.9595 H         1 <0>         0.0915
     55 H17         3.8488    2.3812   -2.6670 H         1 <0>         0.0601
     56 H18         7.7933    3.6252   -7.4865 H         1 <0>         0.0688
     57 H19         6.8963    5.0889   -7.1420 H         1 <0>         0.0630
     58 H20         5.3910    1.1000   -3.9542 H         1 <0>         0.0807
     59 H21         4.3651    1.7081   -5.2548 H         1 <0>         0.0380
     60 H22         5.1498    3.9888   -6.2523 H         1 <0>         0.0484
     61 H23         5.8493    2.5563   -7.0035 H         1 <0>         0.0697
     62 H24         5.2534    4.7844   -2.6367 H         1 <0>         0.0843
     63 H25         1.7044    0.8657    0.3566 H         1 <0>         0.0831
     64 H26         9.7736    5.9418   -5.0932 H         1 <0>         0.0704
     65 H27         8.4167    6.5923   -5.9906 H         1 <0>         0.0718
     66 H28         5.2579    4.9142    2.6804 H         1 <0>         0.0606
     67 H29         5.4809    5.7546    1.1500 H         1 <0>         0.0458
     68 H30         7.2000    6.0392    3.6534 H         1 <0>         0.0375
     69 H31         7.5258    6.8807    2.1417 H         1 <0>         0.0392
     70 H32         7.4599    3.7926    2.4354 H         1 <0>         0.0606
     71 H33         7.7645    4.6634    0.9347 H         1 <0>         0.0579
     72 H34         5.2908    8.0386    2.3228 H         1 <0>         0.0571
     73 H35         6.3225    8.3806    3.7198 H         1 <0>         0.0503
     74 H36         7.0421    2.3587    0.4881 H         1 <0>         0.0993
     75 H37         8.8040    2.4509   -5.4050 H         1 <0>         0.3700
     76 H38        10.0264    3.5689   -4.8487 H         1 <0>         0.3660
     77 H39         4.0028    7.6695    4.3608 H         1 <0>         0.3465
     78 H40         4.9421    6.2118    4.5770 H         1 <0>         0.3446
     79 H41         3.4989    0.9899    2.6717 H         1 <0>         0.3148
     80 H42         5.0545    4.3100   -0.4888 H         1 <0>         0.3220
@<TRIPOS>BOND
     1    1    2 ar
     2    1    3 ar
     3    2    4 ar
     4    3    5 ar
     5    4    6 ar
     6    5    6 ar
     7    6   23 1
     8    7   22 1
     9    7   29 am
    10    7   35 2
    11    8    9 1
    12    8   28 1
    13    8   36 2
    14    9   33 am
    15    9   37 2
    16   10   20 1
    17   10   34 am
    18   10   38 2
    19   11   12 1
    20   11   13 1
    21   12   14 1
    22   13   15 1
    23   14   21 1
    24   15   21 1
    25   16   18 1
    26   16   20 1
    27   17   19 1
    28   17   22 1
    29   18   30 1
    30   19   30 1
    31   20   29 1
    32   21   33 1
    33   22   23 1
    34   22   31 1
    35   24   25 1
    36   24   26 1
    37   25   27 1
    38   26   28 1
    39   27   32 1
    40   28   34 1
    41   29   30 1
    42    1   39 1
    43    2   40 1
    44    3   41 1
    45    4   42 1
    46    5   43 1
    47   11   44 1
    48   11   45 1
    49   12   46 1
    50   12   47 1
    51   13   48 1
    52   13   49 1
    53   14   50 1
    54   14   51 1
    55   15   52 1
    56   15   53 1
    57   16   54 1
    58   16   55 1
    59   17   56 1
    60   17   57 1
    61   18   58 1
    62   18   59 1
    63   19   60 1
    64   19   61 1
    65   20   62 1
    66   21   63 1
    67   23   64 1
    68   23   65 1
    69   24   66 1
    70   24   67 1
    71   25   68 1
    72   25   69 1
    73   26   70 1
    74   26   71 1
    75   27   72 1
    76   27   73 1
    77   28   74 1
    78   31   75 1
    79   31   76 1
    80   32   77 1
    81   32   78 1
    82   33   79 1
    83   34   80 1
@<TRIPOS>MOLECULE
1a46_ligand_326
   80    83     0     0     0
SMALL
USER_CHARGES

mmff94s_NoEstat = 88.93
@<TRIPOS>ATOM
      1 C1          1.7409   12.3935   -1.5361 C.ar      1 <0>        -0.1300
      2 C2          2.2430   11.8090   -0.3734 C.ar      1 <0>        -0.1323
      3 C3          1.4857   11.6057   -2.6586 C.ar      1 <0>        -0.1309
      4 C4          2.4901   10.4368   -0.3331 C.ar      1 <0>        -0.1275
      5 C5          1.7328   10.2334   -2.6183 C.ar      1 <0>        -0.1272
      6 C6          2.2334    9.6580   -1.4559 C.ar      1 <0>        -0.0843
      7 C7          4.2075    6.3518   -1.8158 C.2       1 <0>         0.6709
      8 C8          5.2358    2.3798    1.5634 C.2       1 <0>         0.4867
      9 C9          4.0737    1.7586    0.8450 C.2       1 <0>         0.5883
     10 C10         6.5648    4.1956   -1.4701 C.2       1 <0>         0.6572
     11 C11         4.9178   -0.1813   -3.6183 C.3       1 <0>        -0.0802
     12 C12         4.3601    1.1806   -3.2131 C.3       1 <0>        -0.0765
     13 C13         5.2798   -1.0327   -2.4042 C.3       1 <0>        -0.0774
     14 C14         3.1836    1.0419   -2.2460 C.3       1 <0>        -0.0953
     15 C15         4.1009   -1.1664   -1.4392 C.3       1 <0>        -0.0906
     16 C16         6.7154    4.7360   -3.9137 C.3       1 <0>        -0.0871
     17 C17         4.1811    8.4057   -3.2842 C.3       1 <0>        -0.0716
     18 C18         7.2083    6.1802   -3.8482 C.3       1 <0>         0.1333
     19 C19         5.3192    7.7064   -4.0474 C.3       1 <0>         0.1246
     20 C20         5.8189    4.6139   -2.6998 C.3       1 <0>         0.0606
     21 C21         3.5216    0.1899   -1.0153 C.3       1 <0>         0.1012
     22 C22         3.9302    7.8611   -1.8583 C.3       1 <0>         0.1554
     23 C23         2.4991    8.1819   -1.4126 C.3       1 <0>        -0.0356
     24 C24         7.6485    3.7409    2.8432 C.3       1 <0>        -0.0795
     25 C25         8.2774    4.8743    3.6620 C.3       1 <0>        -0.1203
     26 C26         6.9719    4.2276    1.5544 C.3       1 <0>        -0.0920
     27 C27         8.9284    4.3945    4.9589 C.3       1 <0>         0.1502
     28 C28         6.2906    3.1130    0.7514 C.3       1 <0>         0.0224
     29 N1          5.3643    5.9735   -2.4795 N.am      1 <0>        -0.3553
     30 N2          6.1593    6.9309   -3.1367 N.3       1 <0>        -0.4320
     31 N3          4.8633    8.4685   -0.8981 N.3       1 <0>        -0.9031
     32 N4          9.4866    5.5266    5.6910 N.3       1 <0>        -0.9068
     33 N5          4.4695    0.8988   -0.1529 N.am      1 <0>        -0.5526
     34 N6          5.7762    3.5917   -0.5046 N.am      1 <0>        -0.5576
     35 O1          3.4676    5.5621   -1.2293 O.2       1 <0>        -0.6710
     36 O2          5.3022    2.1819    2.7699 O.2       1 <0>        -0.4901
     37 O3          2.9489    2.0822    1.1900 O.2       1 <0>        -0.5902
     38 O4          7.7705    4.4014   -1.3956 O.2       1 <0>        -0.5833
     39 H1          1.5486   13.4619   -1.5674 H         1 <0>         0.1320
     40 H2          2.4416   12.4225    0.5006 H         1 <0>         0.1324
     41 H3          1.0949   12.0609   -3.5639 H         1 <0>         0.1328
     42 H4          2.8813    9.9902    0.5771 H         1 <0>         0.1324
     43 H5          1.5311    9.6276   -3.4978 H         1 <0>         0.1434
     44 H6          4.1729   -0.7122   -4.2240 H         1 <0>         0.0405
     45 H7          5.8027   -0.0446   -4.2501 H         1 <0>         0.0421
     46 H8          5.1542    1.7772   -2.7482 H         1 <0>         0.0362
     47 H9          4.0371    1.7257   -4.1075 H         1 <0>         0.0439
     48 H10         5.5975   -2.0280   -2.7352 H         1 <0>         0.0350
     49 H11         6.1350   -0.5837   -1.8849 H         1 <0>         0.0428
     50 H12         2.8539    2.0404   -1.9345 H         1 <0>         0.0663
     51 H13         2.3414    0.5806   -2.7774 H         1 <0>         0.0466
     52 H14         3.3114   -1.7547   -1.9241 H         1 <0>         0.0493
     53 H15         4.4214   -1.7321   -0.5559 H         1 <0>         0.0520
     54 H16         6.1203    4.5986   -4.8250 H         1 <0>         0.0915
     55 H17         7.5395    4.0162   -3.9259 H         1 <0>         0.0601
     56 H18         4.3839    9.4843   -3.2353 H         1 <0>         0.0688
     57 H19         3.2652    8.3026   -3.8819 H         1 <0>         0.0630
     58 H20         8.1249    6.2239   -3.2478 H         1 <0>         0.0807
     59 H21         7.4504    6.5803   -4.8390 H         1 <0>         0.0380
     60 H22         4.8852    7.0622   -4.8247 H         1 <0>         0.0484
     61 H23         5.9181    8.4662   -4.5637 H         1 <0>         0.0697
     62 H24         4.9753    3.9333   -2.8455 H         1 <0>         0.0843
     63 H25         2.6216    0.0369   -0.4106 H         1 <0>         0.0831
     64 H26         2.3479    7.7977   -0.4022 H         1 <0>         0.0704
     65 H27         1.7988    7.6502   -2.0594 H         1 <0>         0.0718
     66 H28         8.4445    3.0306    2.5915 H         1 <0>         0.0606
     67 H29         6.9275    3.2007    3.4679 H         1 <0>         0.0458
     68 H30         9.0354    5.3625    3.0356 H         1 <0>         0.0375
     69 H31         7.5157    5.6329    3.8824 H         1 <0>         0.0392
     70 H32         7.7210    4.7221    0.9235 H         1 <0>         0.0606
     71 H33         6.2174    4.9831    1.8035 H         1 <0>         0.0579
     72 H34         9.7251    3.6753    4.7403 H         1 <0>         0.0571
     73 H35         8.1937    3.8977    5.5994 H         1 <0>         0.0503
     74 H36         7.0421    2.3587    0.4881 H         1 <0>         0.0993
     75 H37         5.7856    8.6648   -1.2112 H         1 <0>         0.3700
     76 H38         4.6041    8.4681    0.0612 H         1 <0>         0.3660
     77 H39        10.0430    5.3371    6.4969 H         1 <0>         0.3465
     78 H40         9.1331    6.4373    5.4892 H         1 <0>         0.3446
     79 H41         5.4635    0.7487   -0.2981 H         1 <0>         0.3148
     80 H42         4.7816    3.4809   -0.6931 H         1 <0>         0.3220
@<TRIPOS>BOND
     1    1    2 ar
     2    1    3 ar
     3    2    4 ar
     4    3    5 ar
     5    4    6 ar
     6    5    6 ar
     7    6   23 1
     8    7   22 1
     9    7   29 am
    10    7   35 2
    11    8    9 1
    12    8   28 1
    13    8   36 2
    14    9   33 am
    15    9   37 2
    16   10   20 1
    17   10   34 am
    18   10   38 2
    19   11   12 1
    20   11   13 1
    21   12   14 1
    22   13   15 1
    23   14   21 1
    24   15   21 1
    25   16   18 1
    26   16   20 1
    27   17   19 1
    28   17   22 1
    29   18   30 1
    30   19   30 1
    31   20   29 1
    32   21   33 1
    33   22   23 1
    34   22   31 1
    35   24   25 1
    36   24   26 1
    37   25   27 1
    38   26   28 1
    39   27   32 1
    40   28   34 1
    41   29   30 1
    42    1   39 1
    43    2   40 1
    44    3   41 1
    45    4   42 1
    46    5   43 1
    47   11   44 1
    48   11   45 1
    49   12   46 1
    50   12   47 1
    51   13   48 1
    52   13   49 1
    53   14   50 1
    54   14   51 1
    55   15   52 1
    56   15   53 1
    57   16   54 1
    58   16   55 1
    59   17   56 1
    60   17   57 1
    61   18   58 1
    62   18   59 1
    63   19   60 1
    64   19   61 1
    65   20   62 1
    66   21   63 1
    67   23   64 1
    68   23   65 1
    69   24   66 1
    70   24   67 1
    71   25   68 1
    72   25   69 1
    73   26   70 1
    74   26   71 1
    75   27   72 1
    76   27   73 1
    77   28   74 1
    78   31   75 1
    79   31   76 1
    80   32   77 1
    81   32   78 1
    82   33   79 1
    83   34   80 1
@<TRIPOS>MOLECULE
1a46_ligand_327
   80    83     0     0     0
SMALL
USER_CHARGES

mmff94s_NoEstat = 88.95
@<TRIPOS>ATOM
      1 C1         -4.4072   -3.0319  -14.4211 C.ar      1 <0>        -0.1300
      2 C2         -3.1014   -2.5683  -14.5810 C.ar      1 <0>        -0.1323
      3 C3         -5.2666   -2.3997  -13.5224 C.ar      1 <0>        -0.1309
      4 C4         -2.6549   -1.4727  -13.8421 C.ar      1 <0>        -0.1275
      5 C5         -4.8200   -1.3041  -12.7835 C.ar      1 <0>        -0.1272
      6 C6         -3.5171   -0.8478  -12.9482 C.ar      1 <0>        -0.0843
      7 C7         -1.9267    1.0916  -10.0042 C.2       1 <0>         0.6709
      8 C8          2.7796    3.2097   -6.1637 C.2       1 <0>         0.4867
      9 C9          3.5094    4.2556   -5.3725 C.2       1 <0>         0.5883
     10 C10         0.2181    1.9581   -7.7739 C.2       1 <0>         0.6572
     11 C11         7.1830    8.1918   -5.8484 C.3       1 <0>        -0.0802
     12 C12         7.7659    6.8037   -5.5991 C.3       1 <0>        -0.0765
     13 C13         5.7801    8.3270   -5.2631 C.3       1 <0>        -0.0774
     14 C14         6.8371    5.7027   -6.1082 C.3       1 <0>        -0.0953
     15 C15         4.8490    7.2281   -5.7724 C.3       1 <0>        -0.0906
     16 C16        -1.6423    1.0361   -6.3687 C.3       1 <0>        -0.0871
     17 C17        -3.4475   -0.9240   -9.9997 C.3       1 <0>        -0.0716
     18 C18        -1.5606   -0.4439   -6.7372 C.3       1 <0>         0.1333
     19 C19        -3.1819   -0.9495   -8.4846 C.3       1 <0>         0.1246
     20 C20        -1.2590    1.7411   -7.6524 C.3       1 <0>         0.0606
     21 C21         5.4326    5.8357   -5.5091 C.3       1 <0>         0.1012
     22 C22        -2.4199   -0.1108  -10.8216 C.3       1 <0>         0.1554
     23 C23        -3.0368    0.3307  -12.1535 C.3       1 <0>        -0.0356
     24 C24         1.4445    5.5921   -8.9731 C.3       1 <0>        -0.0795
     25 C25         1.6370    7.0835   -9.2718 C.3       1 <0>        -0.1203
     26 C26         2.1570    5.1335   -7.6933 C.3       1 <0>        -0.0920
     27 C27         0.9502    7.5360  -10.5601 C.3       1 <0>         0.1502
     28 C28         2.0196    3.6328   -7.4097 C.3       1 <0>         0.0224
     29 N1         -1.6352    0.7917   -8.6825 N.am      1 <0>        -0.3553
     30 N2         -1.8196   -0.5121   -8.1858 N.3       1 <0>        -0.4320
     31 N3         -1.2259   -0.9195  -11.1076 N.3       1 <0>        -0.9031
     32 N4          1.1922    8.9569  -10.7874 N.3       1 <0>        -0.9068
     33 N5          4.5532    4.8136   -6.0733 N.am      1 <0>        -0.5526
     34 N6          0.6426    3.2153   -7.3763 N.am      1 <0>        -0.5576
     35 O1         -1.7935    2.2123  -10.4955 O.2       1 <0>        -0.6710
     36 O2          2.7765    2.0764   -5.7001 O.2       1 <0>        -0.4901
     37 O3          3.1326    4.4777   -4.2335 O.2       1 <0>        -0.5902
     38 O4          0.9290    1.0536   -8.1959 O.2       1 <0>        -0.5833
     39 H1         -4.7549   -3.8850  -14.9963 H         1 <0>         0.1320
     40 H2         -2.4324   -3.0606  -15.2808 H         1 <0>         0.1324
     41 H3         -6.2832   -2.7609  -13.3979 H         1 <0>         0.1328
     42 H4         -1.6358   -1.1186  -13.9733 H         1 <0>         0.1324
     43 H5         -5.4966   -0.8180  -12.0857 H         1 <0>         0.1434
     44 H6          7.8400    8.9518   -5.4106 H         1 <0>         0.0405
     45 H7          7.1471    8.3831   -6.9280 H         1 <0>         0.0421
     46 H8          8.7413    6.7197   -6.0915 H         1 <0>         0.0362
     47 H9          7.9374    6.6670   -4.5243 H         1 <0>         0.0439
     48 H10         5.8343    8.2801   -4.1685 H         1 <0>         0.0350
     49 H11         5.3666    9.3087   -5.5205 H         1 <0>         0.0428
     50 H12         6.7836    5.7489   -7.2040 H         1 <0>         0.0663
     51 H13         7.2590    4.7213   -5.8596 H         1 <0>         0.0466
     52 H14         3.8699    7.3216   -5.2871 H         1 <0>         0.0493
     53 H15         4.6769    7.3657   -6.8481 H         1 <0>         0.0520
     54 H16        -2.6779    1.2865   -6.1074 H         1 <0>         0.0915
     55 H17        -0.9998    1.2887   -5.5196 H         1 <0>         0.0601
     56 H18        -3.4897   -1.9539  -10.3797 H         1 <0>         0.0688
     57 H19        -4.4523   -0.5086  -10.1558 H         1 <0>         0.0630
     58 H20        -0.5419   -0.8072   -6.5560 H         1 <0>         0.0807
     59 H21        -2.2364   -1.0589   -6.1327 H         1 <0>         0.0380
     60 H22        -3.9187   -0.3080   -7.9817 H         1 <0>         0.0484
     61 H23        -3.3442   -1.9688   -8.1140 H         1 <0>         0.0697
     62 H24        -1.7661    2.6997   -7.7936 H         1 <0>         0.0843
     63 H25         5.4703    5.6471   -4.4300 H         1 <0>         0.0831
     64 H26        -2.2923    0.8934  -12.7197 H         1 <0>         0.0704
     65 H27        -3.8625    1.0157  -11.9521 H         1 <0>         0.0718
     66 H28         0.3683    5.4079   -8.8774 H         1 <0>         0.0606
     67 H29         1.7918    5.0040   -9.8306 H         1 <0>         0.0458
     68 H30         1.2300    7.6523   -8.4256 H         1 <0>         0.0375
     69 H31         2.7093    7.3123   -9.3176 H         1 <0>         0.0392
     70 H32         1.7604    5.7005   -6.8419 H         1 <0>         0.0606
     71 H33         3.2243    5.3739   -7.7660 H         1 <0>         0.0579
     72 H34        -0.1287    7.3572  -10.4981 H         1 <0>         0.0571
     73 H35         1.3345    6.9786  -11.4193 H         1 <0>         0.0503
     74 H36         2.4714    3.0747   -8.2388 H         1 <0>         0.0993
     75 H37        -0.9249   -1.5612  -10.4112 H         1 <0>         0.3700
     76 H38        -0.6609   -0.6518  -11.8799 H         1 <0>         0.3660
     77 H39         0.7014    9.4044  -11.5317 H         1 <0>         0.3465
     78 H40         1.9755    9.3785  -10.3359 H         1 <0>         0.3446
     79 H41         4.7203    4.5015   -7.0253 H         1 <0>         0.3148
     80 H42        -0.0552    3.8781   -7.0434 H         1 <0>         0.3220
@<TRIPOS>BOND
     1    1    2 ar
     2    1    3 ar
     3    2    4 ar
     4    3    5 ar
     5    4    6 ar
     6    5    6 ar
     7    6   23 1
     8    7   22 1
     9    7   29 am
    10    7   35 2
    11    8    9 1
    12    8   28 1
    13    8   36 2
    14    9   33 am
    15    9   37 2
    16   10   20 1
    17   10   34 am
    18   10   38 2
    19   11   12 1
    20   11   13 1
    21   12   14 1
    22   13   15 1
    23   14   21 1
    24   15   21 1
    25   16   18 1
    26   16   20 1
    27   17   19 1
    28   17   22 1
    29   18   30 1
    30   19   30 1
    31   20   29 1
    32   21   33 1
    33   22   23 1
    34   22   31 1
    35   24   25 1
    36   24   26 1
    37   25   27 1
    38   26   28 1
    39   27   32 1
    40   28   34 1
    41   29   30 1
    42    1   39 1
    43    2   40 1
    44    3   41 1
    45    4   42 1
    46    5   43 1
    47   11   44 1
    48   11   45 1
    49   12   46 1
    50   12   47 1
    51   13   48 1
    52   13   49 1
    53   14   50 1
    54   14   51 1
    55   15   52 1
    56   15   53 1
    57   16   54 1
    58   16   55 1
    59   17   56 1
    60   17   57 1
    61   18   58 1
    62   18   59 1
    63   19   60 1
    64   19   61 1
    65   20   62 1
    66   21   63 1
    67   23   64 1
    68   23   65 1
    69   24   66 1
    70   24   67 1
    71   25   68 1
    72   25   69 1
    73   26   70 1
    74   26   71 1
    75   27   72 1
    76   27   73 1
    77   28   74 1
    78   31   75 1
    79   31   76 1
    80   32   77 1
    81   32   78 1
    82   33   79 1
    83   34   80 1
@<TRIPOS>MOLECULE
1a46_ligand_328
   80    83     0     0     0
SMALL
USER_CHARGES

mmff94s_NoEstat = 88.97
@<TRIPOS>ATOM
      1 C1         -7.1814    8.1831  -11.8066 C.ar      1 <0>        -0.1300
      2 C2         -5.8511    8.6018  -11.7877 C.ar      1 <0>        -0.1323
      3 C3         -7.6137    7.1932  -10.9240 C.ar      1 <0>        -0.1309
      4 C4         -4.9529    8.0306  -10.8863 C.ar      1 <0>        -0.1275
      5 C5         -6.7155    6.6220  -10.0225 C.ar      1 <0>        -0.1272
      6 C6         -5.3910    7.0444  -10.0096 C.ar      1 <0>        -0.0843
      7 C7         -2.7477    4.5672   -8.6551 C.2       1 <0>         0.6709
      8 C8          2.7796    3.2097   -6.1637 C.2       1 <0>         0.4867
      9 C9          2.2829    2.0299   -5.3801 C.2       1 <0>         0.5883
     10 C10        -0.0591    2.8141   -8.5012 C.2       1 <0>         0.6572
     11 C11        -2.1182    0.0637   -2.9350 C.3       1 <0>        -0.0802
     12 C12        -1.2822   -0.6402   -4.0001 C.3       1 <0>        -0.0765
     13 C13        -1.2651    0.9841   -2.0667 C.3       1 <0>        -0.0774
     14 C14        -0.4933    0.3571   -4.8469 C.3       1 <0>        -0.0953
     15 C15        -0.4755    1.9830   -2.9108 C.3       1 <0>        -0.0906
     16 C16        -1.8142    1.0434   -8.7649 C.3       1 <0>        -0.0871
     17 C17        -4.7936    4.1559  -10.0766 C.3       1 <0>        -0.0716
     18 C18        -2.2713    1.3172  -10.1964 C.3       1 <0>         0.1333
     19 C19        -4.2684    2.7130  -10.1718 C.3       1 <0>         0.1246
     20 C20        -1.4789    2.4202   -8.2321 C.3       1 <0>         0.0606
     21 C21         0.3712    1.2712   -3.9717 C.3       1 <0>         0.1012
     22 C22        -3.7376    5.2000   -9.6434 C.3       1 <0>         0.1554
     23 C23        -4.4248    6.4299   -9.0399 C.3       1 <0>        -0.0356
     24 C24         1.4445    5.5921   -8.9731 C.3       1 <0>        -0.0795
     25 C25         1.6370    7.0835   -9.2718 C.3       1 <0>        -0.1203
     26 C26         2.1570    5.1335   -7.6933 C.3       1 <0>        -0.0920
     27 C27         0.9502    7.5360  -10.5601 C.3       1 <0>         0.1502
     28 C28         2.0196    3.6328   -7.4097 C.3       1 <0>         0.0224
     29 N1         -2.3208    3.2998   -9.0203 N.am      1 <0>        -0.3553
     30 N2         -2.8071    2.6894  -10.1914 N.3       1 <0>        -0.4320
     31 N3         -2.9336    5.6348  -10.7950 N.3       1 <0>        -0.9031
     32 N4         -0.4891    7.3143  -10.4680 N.3       1 <0>        -0.9068
     33 N5          1.0538    2.2579   -4.8066 N.am      1 <0>        -0.5526
     34 N6          0.6426    3.2153   -7.3763 N.am      1 <0>        -0.5576
     35 O1         -2.3654    5.1506   -7.6410 O.2       1 <0>        -0.6710
     36 O2          3.8302    3.7133   -5.7870 O.2       1 <0>        -0.4901
     37 O3          2.9978    1.0431   -5.3175 O.2       1 <0>        -0.5902
     38 O4          0.3766    2.7593   -9.6452 O.2       1 <0>        -0.5833
     39 H1         -7.8808    8.6278  -12.5086 H         1 <0>         0.1320
     40 H2         -5.5146    9.3725  -12.4750 H         1 <0>         0.1324
     41 H3         -8.6496    6.8672  -10.9389 H         1 <0>         0.1328
     42 H4         -3.9182    8.3631  -10.8788 H         1 <0>         0.1324
     43 H5         -7.0613    5.8514   -9.3387 H         1 <0>         0.1434
     44 H6         -2.9082    0.6502   -3.4206 H         1 <0>         0.0405
     45 H7         -2.6154   -0.6819   -2.3042 H         1 <0>         0.0421
     46 H8         -0.5872   -1.3379   -3.5168 H         1 <0>         0.0362
     47 H9         -1.9356   -1.2364   -4.6469 H         1 <0>         0.0439
     48 H10        -1.9062    1.5239   -1.3606 H         1 <0>         0.0350
     49 H11        -0.5692    0.3813   -1.4701 H         1 <0>         0.0428
     50 H12         0.1379   -0.1854   -5.5610 H         1 <0>         0.0663
     51 H13        -1.1901    0.9595   -5.4444 H         1 <0>         0.0466
     52 H14        -1.1708    2.6823   -3.3935 H         1 <0>         0.0493
     53 H15         0.1688    2.5859   -2.2595 H         1 <0>         0.0520
     54 H16        -2.6505    0.6220   -8.1933 H         1 <0>         0.0915
     55 H17        -0.9769    0.3401   -8.7238 H         1 <0>         0.0601
     56 H18        -5.2271    4.4505  -11.0420 H         1 <0>         0.0688
     57 H19        -5.6282    4.1614   -9.3624 H         1 <0>         0.0630
     58 H20        -1.4027    1.2932  -10.8654 H         1 <0>         0.0807
     59 H21        -2.9789    0.5622  -10.5565 H         1 <0>         0.0380
     60 H22        -4.6584    2.1340   -9.3232 H         1 <0>         0.0484
     61 H23        -4.6688    2.2501  -11.0817 H         1 <0>         0.0697
     62 H24        -1.6773    2.5360   -7.1628 H         1 <0>         0.0843
     63 H25         1.1581    0.6834   -3.4853 H         1 <0>         0.0831
     64 H26        -3.6625    7.1558   -8.7509 H         1 <0>         0.0704
     65 H27        -4.9408    6.1344   -8.1245 H         1 <0>         0.0718
     66 H28         0.3683    5.4079   -8.8774 H         1 <0>         0.0606
     67 H29         1.7918    5.0040   -9.8306 H         1 <0>         0.0458
     68 H30         1.2300    7.6523   -8.4256 H         1 <0>         0.0375
     69 H31         2.7093    7.3123   -9.3176 H         1 <0>         0.0392
     70 H32         1.7604    5.7005   -6.8419 H         1 <0>         0.0606
     71 H33         3.2243    5.3739   -7.7660 H         1 <0>         0.0579
     72 H34         1.3485    6.9825  -11.4172 H         1 <0>         0.0571
     73 H35         1.1247    8.6013  -10.7375 H         1 <0>         0.0503
     74 H36         2.4714    3.0747   -8.2388 H         1 <0>         0.0993
     75 H37        -2.7229    4.9595  -11.4927 H         1 <0>         0.3700
     76 H38        -2.4695    6.5111  -10.7297 H         1 <0>         0.3660
     77 H39        -1.0402    7.4574  -11.2870 H         1 <0>         0.3465
     78 H40        -0.8946    7.2297   -9.5606 H         1 <0>         0.3446
     79 H41         0.6002    3.1517   -4.9705 H         1 <0>         0.3148
     80 H42         0.1596    3.2148   -6.4798 H         1 <0>         0.3220
@<TRIPOS>BOND
     1    1    2 ar
     2    1    3 ar
     3    2    4 ar
     4    3    5 ar
     5    4    6 ar
     6    5    6 ar
     7    6   23 1
     8    7   22 1
     9    7   29 am
    10    7   35 2
    11    8    9 1
    12    8   28 1
    13    8   36 2
    14    9   33 am
    15    9   37 2
    16   10   20 1
    17   10   34 am
    18   10   38 2
    19   11   12 1
    20   11   13 1
    21   12   14 1
    22   13   15 1
    23   14   21 1
    24   15   21 1
    25   16   18 1
    26   16   20 1
    27   17   19 1
    28   17   22 1
    29   18   30 1
    30   19   30 1
    31   20   29 1
    32   21   33 1
    33   22   23 1
    34   22   31 1
    35   24   25 1
    36   24   26 1
    37   25   27 1
    38   26   28 1
    39   27   32 1
    40   28   34 1
    41   29   30 1
    42    1   39 1
    43    2   40 1
    44    3   41 1
    45    4   42 1
    46    5   43 1
    47   11   44 1
    48   11   45 1
    49   12   46 1
    50   12   47 1
    51   13   48 1
    52   13   49 1
    53   14   50 1
    54   14   51 1
    55   15   52 1
    56   15   53 1
    57   16   54 1
    58   16   55 1
    59   17   56 1
    60   17   57 1
    61   18   58 1
    62   18   59 1
    63   19   60 1
    64   19   61 1
    65   20   62 1
    66   21   63 1
    67   23   64 1
    68   23   65 1
    69   24   66 1
    70   24   67 1
    71   25   68 1
    72   25   69 1
    73   26   70 1
    74   26   71 1
    75   27   72 1
    76   27   73 1
    77   28   74 1
    78   31   75 1
    79   31   76 1
    80   32   77 1
    81   32   78 1
    82   33   79 1
    83   34   80 1
@<TRIPOS>MOLECULE
1a46_ligand_329
   80    83     0     0     0
SMALL
USER_CHARGES

mmff94s_NoEstat = 89.15
@<TRIPOS>ATOM
      1 C1         -4.4072   -3.0319  -14.4211 C.ar      1 <0>        -0.1300
      2 C2         -3.1014   -2.5683  -14.5810 C.ar      1 <0>        -0.1323
      3 C3         -5.2666   -2.3997  -13.5224 C.ar      1 <0>        -0.1309
      4 C4         -2.6549   -1.4727  -13.8421 C.ar      1 <0>        -0.1275
      5 C5         -4.8200   -1.3041  -12.7835 C.ar      1 <0>        -0.1272
      6 C6         -3.5171   -0.8478  -12.9482 C.ar      1 <0>        -0.0843
      7 C7         -1.9267    1.0916  -10.0042 C.2       1 <0>         0.6709
      8 C8          2.7796    3.2097   -6.1637 C.2       1 <0>         0.4867
      9 C9          2.0233    2.5606   -5.0416 C.2       1 <0>         0.5883
     10 C10         0.2181    1.9581   -7.7739 C.2       1 <0>         0.6572
     11 C11         1.5798   -2.2049   -2.4417 C.3       1 <0>        -0.0802
     12 C12         0.5278   -1.7628   -3.4551 C.3       1 <0>        -0.0765
     13 C13         2.2622   -1.0106   -1.7808 C.3       1 <0>        -0.0774
     14 C14         1.1121   -0.8057   -4.4927 C.3       1 <0>        -0.0953
     15 C15         2.8490   -0.0531   -2.8166 C.3       1 <0>        -0.0906
     16 C16        -1.6423    1.0361   -6.3687 C.3       1 <0>        -0.0871
     17 C17        -3.4475   -0.9240   -9.9997 C.3       1 <0>        -0.0716
     18 C18        -1.5606   -0.4439   -6.7372 C.3       1 <0>         0.1333
     19 C19        -3.1819   -0.9495   -8.4846 C.3       1 <0>         0.1246
     20 C20        -1.2590    1.7411   -7.6524 C.3       1 <0>         0.0606
     21 C21         1.7865    0.3978   -3.8249 C.3       1 <0>         0.1012
     22 C22        -2.4199   -0.1108  -10.8216 C.3       1 <0>         0.1554
     23 C23        -3.0368    0.3307  -12.1535 C.3       1 <0>        -0.0356
     24 C24         1.5857    6.0302   -6.5865 C.3       1 <0>        -0.0795
     25 C25         1.6811    7.5259   -6.9095 C.3       1 <0>        -0.1203
     26 C26         2.1570    5.1335   -7.6933 C.3       1 <0>        -0.0920
     27 C27         1.0885    8.4192   -5.8200 C.3       1 <0>         0.1502
     28 C28         2.0196    3.6328   -7.4097 C.3       1 <0>         0.0224
     29 N1         -1.6352    0.7917   -8.6825 N.am      1 <0>        -0.3553
     30 N2         -1.8196   -0.5121   -8.1858 N.3       1 <0>        -0.4320
     31 N3         -1.2259   -0.9195  -11.1076 N.3       1 <0>        -0.9031
     32 N4          1.1980    9.8225   -6.2046 N.3       1 <0>        -0.9068
     33 N5          2.3972    1.2522   -4.8415 N.am      1 <0>        -0.5526
     34 N6          0.6426    3.2153   -7.3763 N.am      1 <0>        -0.5576
     35 O1         -1.7935    2.2123  -10.4955 O.2       1 <0>        -0.6710
     36 O2          3.9949    3.2835   -6.0334 O.2       1 <0>        -0.4901
     37 O3          1.1778    3.2234   -4.4630 O.2       1 <0>        -0.5902
     38 O4          0.9290    1.0536   -8.1959 O.2       1 <0>        -0.5833
     39 H1         -4.7549   -3.8850  -14.9963 H         1 <0>         0.1320
     40 H2         -2.4324   -3.0606  -15.2808 H         1 <0>         0.1324
     41 H3         -6.2832   -2.7609  -13.3979 H         1 <0>         0.1328
     42 H4         -1.6358   -1.1186  -13.9733 H         1 <0>         0.1324
     43 H5         -5.4966   -0.8180  -12.0857 H         1 <0>         0.1434
     44 H6          1.1122   -2.8331   -1.6751 H         1 <0>         0.0405
     45 H7          2.3337   -2.8223   -2.9455 H         1 <0>         0.0421
     46 H8          0.1091   -2.6413   -3.9588 H         1 <0>         0.0362
     47 H9         -0.3001   -1.2698   -2.9308 H         1 <0>         0.0439
     48 H10         1.5367   -0.4732   -1.1579 H         1 <0>         0.0350
     49 H11         3.0568   -1.3633   -1.1135 H         1 <0>         0.0428
     50 H12         1.8376   -1.3437   -5.1170 H         1 <0>         0.0663
     51 H13         0.3171   -0.4634   -5.1663 H         1 <0>         0.0466
     52 H14         3.2780    0.8196   -2.3093 H         1 <0>         0.0493
     53 H15         3.6783   -0.5465   -3.3406 H         1 <0>         0.0520
     54 H16        -2.6779    1.2865   -6.1074 H         1 <0>         0.0915
     55 H17        -0.9998    1.2887   -5.5196 H         1 <0>         0.0601
     56 H18        -3.4897   -1.9539  -10.3797 H         1 <0>         0.0688
     57 H19        -4.4523   -0.5086  -10.1558 H         1 <0>         0.0630
     58 H20        -0.5419   -0.8072   -6.5560 H         1 <0>         0.0807
     59 H21        -2.2364   -1.0589   -6.1327 H         1 <0>         0.0380
     60 H22        -3.9187   -0.3080   -7.9817 H         1 <0>         0.0484
     61 H23        -3.3442   -1.9688   -8.1140 H         1 <0>         0.0697
     62 H24        -1.7661    2.6997   -7.7936 H         1 <0>         0.0843
     63 H25         1.0326    1.0124   -3.3195 H         1 <0>         0.0831
     64 H26        -2.2923    0.8934  -12.7197 H         1 <0>         0.0704
     65 H27        -3.8625    1.0157  -11.9521 H         1 <0>         0.0718
     66 H28         2.1358    5.8550   -5.6547 H         1 <0>         0.0606
     67 H29         0.5392    5.7688   -6.3906 H         1 <0>         0.0458
     68 H30         2.7419    7.7748   -7.0444 H         1 <0>         0.0375
     69 H31         1.1870    7.7255   -7.8687 H         1 <0>         0.0392
     70 H32         3.2164    5.3787   -7.8393 H         1 <0>         0.0606
     71 H33         1.6466    5.3535   -8.6384 H         1 <0>         0.0579
     72 H34         1.6137    8.2608   -4.8719 H         1 <0>         0.0571
     73 H35         0.0315    8.1861   -5.6617 H         1 <0>         0.0503
     74 H36         2.4714    3.0747   -8.2388 H         1 <0>         0.0993
     75 H37        -0.9249   -1.5612  -10.4112 H         1 <0>         0.3700
     76 H38        -0.6609   -0.6518  -11.8799 H         1 <0>         0.3660
     77 H39         0.9557   10.5154   -5.5293 H         1 <0>         0.3465
     78 H40         1.3102   10.0373   -7.1723 H         1 <0>         0.3446
     79 H41         3.1304    0.8623   -5.4263 H         1 <0>         0.3148
     80 H42        -0.0552    3.8781   -7.0434 H         1 <0>         0.3220
@<TRIPOS>BOND
     1    1    2 ar
     2    1    3 ar
     3    2    4 ar
     4    3    5 ar
     5    4    6 ar
     6    5    6 ar
     7    6   23 1
     8    7   22 1
     9    7   29 am
    10    7   35 2
    11    8    9 1
    12    8   28 1
    13    8   36 2
    14    9   33 am
    15    9   37 2
    16   10   20 1
    17   10   34 am
    18   10   38 2
    19   11   12 1
    20   11   13 1
    21   12   14 1
    22   13   15 1
    23   14   21 1
    24   15   21 1
    25   16   18 1
    26   16   20 1
    27   17   19 1
    28   17   22 1
    29   18   30 1
    30   19   30 1
    31   20   29 1
    32   21   33 1
    33   22   23 1
    34   22   31 1
    35   24   25 1
    36   24   26 1
    37   25   27 1
    38   26   28 1
    39   27   32 1
    40   28   34 1
    41   29   30 1
    42    1   39 1
    43    2   40 1
    44    3   41 1
    45    4   42 1
    46    5   43 1
    47   11   44 1
    48   11   45 1
    49   12   46 1
    50   12   47 1
    51   13   48 1
    52   13   49 1
    53   14   50 1
    54   14   51 1
    55   15   52 1
    56   15   53 1
    57   16   54 1
    58   16   55 1
    59   17   56 1
    60   17   57 1
    61   18   58 1
    62   18   59 1
    63   19   60 1
    64   19   61 1
    65   20   62 1
    66   21   63 1
    67   23   64 1
    68   23   65 1
    69   24   66 1
    70   24   67 1
    71   25   68 1
    72   25   69 1
    73   26   70 1
    74   26   71 1
    75   27   72 1
    76   27   73 1
    77   28   74 1
    78   31   75 1
    79   31   76 1
    80   32   77 1
    81   32   78 1
    82   33   79 1
    83   34   80 1
@<TRIPOS>MOLECULE
1a46_ligand_330
   80    83     0     0     0
SMALL
USER_CHARGES

mmff94s_NoEstat = 89.17
@<TRIPOS>ATOM
      1 C1          1.7409   12.3935   -1.5361 C.ar      1 <0>        -0.1300
      2 C2          2.2430   11.8090   -0.3734 C.ar      1 <0>        -0.1323
      3 C3          1.4857   11.6057   -2.6586 C.ar      1 <0>        -0.1309
      4 C4          2.4901   10.4368   -0.3331 C.ar      1 <0>        -0.1275
      5 C5          1.7328   10.2334   -2.6183 C.ar      1 <0>        -0.1272
      6 C6          2.2334    9.6580   -1.4559 C.ar      1 <0>        -0.0843
      7 C7          4.2075    6.3518   -1.8158 C.2       1 <0>         0.6709
      8 C8          5.2358    2.3798    1.5634 C.2       1 <0>         0.4867
      9 C9          4.0737    1.7586    0.8450 C.2       1 <0>         0.5883
     10 C10         6.5648    4.1956   -1.4701 C.2       1 <0>         0.6572
     11 C11        -0.3436    3.9389    1.2072 C.3       1 <0>        -0.0802
     12 C12         0.1158    3.0864    2.3871 C.3       1 <0>        -0.0765
     13 C13         0.7010    3.9825    0.0951 C.3       1 <0>        -0.0774
     14 C14         0.5285    1.6832    1.9406 C.3       1 <0>        -0.0953
     15 C15         1.1119    2.5771   -0.3462 C.3       1 <0>        -0.0906
     16 C16         6.7154    4.7360   -3.9137 C.3       1 <0>        -0.0871
     17 C17         4.1811    8.4057   -3.2842 C.3       1 <0>        -0.0716
     18 C18         7.2083    6.1802   -3.8482 C.3       1 <0>         0.1333
     19 C19         5.3192    7.7064   -4.0474 C.3       1 <0>         0.1246
     20 C20         5.8189    4.6139   -2.6998 C.3       1 <0>         0.0606
     21 C21         1.5791    1.6990    0.8223 C.3       1 <0>         0.1012
     22 C22         3.9302    7.8611   -1.8583 C.3       1 <0>         0.1554
     23 C23         2.4991    8.1819   -1.4126 C.3       1 <0>        -0.0356
     24 C24         7.6485    3.7409    2.8432 C.3       1 <0>        -0.0795
     25 C25         8.2774    4.8743    3.6620 C.3       1 <0>        -0.1203
     26 C26         6.9719    4.2276    1.5544 C.3       1 <0>        -0.0920
     27 C27         8.9284    4.3945    4.9589 C.3       1 <0>         0.1502
     28 C28         6.2906    3.1130    0.7514 C.3       1 <0>         0.0224
     29 N1          5.3643    5.9735   -2.4795 N.am      1 <0>        -0.3553
     30 N2          6.1593    6.9309   -3.1367 N.3       1 <0>        -0.4320
     31 N3          4.8633    8.4685   -0.8981 N.3       1 <0>        -0.9031
     32 N4          9.4866    5.5266    5.6910 N.3       1 <0>        -0.9068
     33 N5          2.8617    2.1823    1.3384 N.am      1 <0>        -0.5526
     34 N6          5.7762    3.5917   -0.5046 N.am      1 <0>        -0.5576
     35 O1          3.4676    5.5621   -1.2293 O.2       1 <0>        -0.6710
     36 O2          5.3022    2.1819    2.7699 O.2       1 <0>        -0.4901
     37 O3          4.3127    0.9617   -0.0474 O.2       1 <0>        -0.5902
     38 O4          7.7705    4.4014   -1.3956 O.2       1 <0>        -0.5833
     39 H1          1.5486   13.4619   -1.5674 H         1 <0>         0.1320
     40 H2          2.4416   12.4225    0.5006 H         1 <0>         0.1324
     41 H3          1.0949   12.0609   -3.5639 H         1 <0>         0.1328
     42 H4          2.8813    9.9902    0.5771 H         1 <0>         0.1324
     43 H5          1.5311    9.6276   -3.4978 H         1 <0>         0.1434
     44 H6         -1.2806    3.5308    0.8085 H         1 <0>         0.0405
     45 H7         -0.5604    4.9570    1.5500 H         1 <0>         0.0421
     46 H8          0.9580    3.5789    2.8881 H         1 <0>         0.0362
     47 H9         -0.6922    3.0137    3.1241 H         1 <0>         0.0439
     48 H10         0.3007    4.5341   -0.7632 H         1 <0>         0.0350
     49 H11         1.5824    4.5346    0.4431 H         1 <0>         0.0428
     50 H12         0.9075    1.1267    2.8064 H         1 <0>         0.0663
     51 H13        -0.3617    1.1491    1.5846 H         1 <0>         0.0466
     52 H14         0.2553    2.0945   -0.8337 H         1 <0>         0.0493
     53 H15         1.9046    2.6542   -1.1003 H         1 <0>         0.0520
     54 H16         6.1203    4.5986   -4.8250 H         1 <0>         0.0915
     55 H17         7.5395    4.0162   -3.9259 H         1 <0>         0.0601
     56 H18         4.3839    9.4843   -3.2353 H         1 <0>         0.0688
     57 H19         3.2652    8.3026   -3.8819 H         1 <0>         0.0630
     58 H20         8.1249    6.2239   -3.2478 H         1 <0>         0.0807
     59 H21         7.4504    6.5803   -4.8390 H         1 <0>         0.0380
     60 H22         4.8852    7.0622   -4.8247 H         1 <0>         0.0484
     61 H23         5.9181    8.4662   -4.5637 H         1 <0>         0.0697
     62 H24         4.9753    3.9333   -2.8455 H         1 <0>         0.0843
     63 H25         1.7624    0.6785    0.4701 H         1 <0>         0.0831
     64 H26         2.3479    7.7977   -0.4022 H         1 <0>         0.0704
     65 H27         1.7988    7.6502   -2.0594 H         1 <0>         0.0718
     66 H28         8.4445    3.0306    2.5915 H         1 <0>         0.0606
     67 H29         6.9275    3.2007    3.4679 H         1 <0>         0.0458
     68 H30         9.0354    5.3625    3.0356 H         1 <0>         0.0375
     69 H31         7.5157    5.6329    3.8824 H         1 <0>         0.0392
     70 H32         7.7210    4.7221    0.9235 H         1 <0>         0.0606
     71 H33         6.2174    4.9831    1.8035 H         1 <0>         0.0579
     72 H34         9.7251    3.6753    4.7403 H         1 <0>         0.0571
     73 H35         8.1937    3.8977    5.5994 H         1 <0>         0.0503
     74 H36         7.0421    2.3587    0.4881 H         1 <0>         0.0993
     75 H37         5.7856    8.6648   -1.2112 H         1 <0>         0.3700
     76 H38         4.6041    8.4681    0.0612 H         1 <0>         0.3660
     77 H39        10.0430    5.3371    6.4969 H         1 <0>         0.3465
     78 H40         9.1331    6.4373    5.4892 H         1 <0>         0.3446
     79 H41         2.8559    2.8605    2.0944 H         1 <0>         0.3148
     80 H42         4.7816    3.4809   -0.6931 H         1 <0>         0.3220
@<TRIPOS>BOND
     1    1    2 ar
     2    1    3 ar
     3    2    4 ar
     4    3    5 ar
     5    4    6 ar
     6    5    6 ar
     7    6   23 1
     8    7   22 1
     9    7   29 am
    10    7   35 2
    11    8    9 1
    12    8   28 1
    13    8   36 2
    14    9   33 am
    15    9   37 2
    16   10   20 1
    17   10   34 am
    18   10   38 2
    19   11   12 1
    20   11   13 1
    21   12   14 1
    22   13   15 1
    23   14   21 1
    24   15   21 1
    25   16   18 1
    26   16   20 1
    27   17   19 1
    28   17   22 1
    29   18   30 1
    30   19   30 1
    31   20   29 1
    32   21   33 1
    33   22   23 1
    34   22   31 1
    35   24   25 1
    36   24   26 1
    37   25   27 1
    38   26   28 1
    39   27   32 1
    40   28   34 1
    41   29   30 1
    42    1   39 1
    43    2   40 1
    44    3   41 1
    45    4   42 1
    46    5   43 1
    47   11   44 1
    48   11   45 1
    49   12   46 1
    50   12   47 1
    51   13   48 1
    52   13   49 1
    53   14   50 1
    54   14   51 1
    55   15   52 1
    56   15   53 1
    57   16   54 1
    58   16   55 1
    59   17   56 1
    60   17   57 1
    61   18   58 1
    62   18   59 1
    63   19   60 1
    64   19   61 1
    65   20   62 1
    66   21   63 1
    67   23   64 1
    68   23   65 1
    69   24   66 1
    70   24   67 1
    71   25   68 1
    72   25   69 1
    73   26   70 1
    74   26   71 1
    75   27   72 1
    76   27   73 1
    77   28   74 1
    78   31   75 1
    79   31   76 1
    80   32   77 1
    81   32   78 1
    82   33   79 1
    83   34   80 1
@<TRIPOS>MOLECULE
1a46_ligand_331
   80    83     0     0     0
SMALL
USER_CHARGES

mmff94s_NoEstat = 89.26
@<TRIPOS>ATOM
      1 C1         -7.7455    8.1925  -11.7378 C.ar      1 <0>        -0.1300
      2 C2         -6.4538    8.7176  -11.7053 C.ar      1 <0>        -0.1323
      3 C3         -8.1013    7.1613  -10.8684 C.ar      1 <0>        -0.1309
      4 C4         -5.5176    8.2116  -10.8036 C.ar      1 <0>        -0.1275
      5 C5         -7.1651    6.6552   -9.9666 C.ar      1 <0>        -0.1272
      6 C6         -5.8794    7.1836   -9.9401 C.ar      1 <0>        -0.0843
      7 C7         -3.0518    4.9149   -8.5929 C.2       1 <0>         0.6709
      8 C8          2.7796    3.2097   -6.1637 C.2       1 <0>         0.4867
      9 C9          2.2829    2.0299   -5.3801 C.2       1 <0>         0.5883
     10 C10        -0.2306    3.3845   -8.4382 C.2       1 <0>         0.6572
     11 C11         0.2190   -2.9255   -6.0120 C.3       1 <0>        -0.0802
     12 C12         1.7414   -2.8769   -5.9183 C.3       1 <0>        -0.0765
     13 C13        -0.4286   -1.7622   -5.2661 C.3       1 <0>        -0.0774
     14 C14         2.2921   -1.5322   -6.3901 C.3       1 <0>        -0.0953
     15 C15         0.1197   -0.4160   -5.7365 C.3       1 <0>        -0.0906
     16 C16        -1.8342    1.4799   -8.7324 C.3       1 <0>        -0.0871
     17 C17        -5.0487    4.3542  -10.0327 C.3       1 <0>        -0.0716
     18 C18        -2.3033    1.7312  -10.1641 C.3       1 <0>         0.1333
     19 C19        -4.4074    2.9598  -10.1390 C.3       1 <0>         0.1246
     20 C20        -1.6152    2.8736   -8.1831 C.3       1 <0>         0.0606
     21 C21         1.6479   -0.3676   -5.6301 C.3       1 <0>         0.1012
     22 C22        -4.0838    5.4758   -9.5814 C.3       1 <0>         0.1554
     23 C23        -4.8724    6.6393   -8.9701 C.3       1 <0>        -0.0356
     24 C24         3.6080    5.6033   -7.8654 C.3       1 <0>        -0.0795
     25 C25         3.7321    7.1143   -8.0937 C.3       1 <0>        -0.1203
     26 C26         2.1570    5.1335   -7.6933 C.3       1 <0>        -0.0920
     27 C27         3.0199    7.5957   -9.3574 C.3       1 <0>         0.1502
     28 C28         2.0196    3.6328   -7.4097 C.3       1 <0>         0.0224
     29 N1         -2.5211    3.6904   -8.9681 N.am      1 <0>        -0.3553
     30 N2         -2.9489    3.0553  -10.1488 N.3       1 <0>        -0.4320
     31 N3         -3.3108    5.9870  -10.7228 N.3       1 <0>        -0.9031
     32 N4          3.1970    9.0352   -9.5179 N.3       1 <0>        -0.9068
     33 N5          2.1424    0.9032   -6.1564 N.am      1 <0>        -0.5526
     34 N6          0.6426    3.2153   -7.3763 N.am      1 <0>        -0.5576
     35 O1         -2.7244    5.5164   -7.5701 O.2       1 <0>        -0.6710
     36 O2          3.8302    3.7133   -5.7870 O.2       1 <0>        -0.4901
     37 O3          2.0451    2.1901   -4.1942 O.2       1 <0>        -0.5902
     38 O4          0.0350    3.8958   -9.5198 O.2       1 <0>        -0.5833
     39 H1         -8.4745    8.5865  -12.4399 H         1 <0>         0.1320
     40 H2         -6.1769    9.5206  -12.3823 H         1 <0>         0.1324
     41 H3         -9.1071    6.7523  -10.8939 H         1 <0>         0.1328
     42 H4         -4.5135    8.6269  -10.7854 H         1 <0>         0.1324
     43 H5         -7.4512    5.8517   -9.2932 H         1 <0>         0.1434
     44 H6         -0.0822   -2.8949   -7.0666 H         1 <0>         0.0405
     45 H7         -0.1455   -3.8745   -5.6027 H         1 <0>         0.0421
     46 H8          2.0492   -3.0527   -4.8801 H         1 <0>         0.0362
     47 H9          2.1736   -3.6836   -6.5209 H         1 <0>         0.0439
     48 H10        -1.5144   -1.7892   -5.4121 H         1 <0>         0.0350
     49 H11        -0.2478   -1.8730   -4.1898 H         1 <0>         0.0428
     50 H12         3.3802   -1.5126   -6.2548 H         1 <0>         0.0663
     51 H13         2.1118   -1.4222   -7.4676 H         1 <0>         0.0466
     52 H14        -0.1895   -0.2393   -6.7751 H         1 <0>         0.0493
     53 H15        -0.3235    0.3900   -5.1392 H         1 <0>         0.0520
     54 H16        -2.6369    0.9859   -8.1710 H         1 <0>         0.0915
     55 H17        -0.9427    0.8466   -8.6926 H         1 <0>         0.0601
     56 H18        -5.4989    4.6229  -10.9981 H         1 <0>         0.0688
     57 H19        -5.8853    4.2840   -9.3243 H         1 <0>         0.0630
     58 H20        -1.4316    1.7851  -10.8273 H         1 <0>         0.0807
     59 H21        -2.9449    0.9252  -10.5369 H         1 <0>         0.0380
     60 H22        -4.7542    2.3419   -9.2992 H         1 <0>         0.0484
     61 H23        -4.7632    2.4757  -11.0564 H         1 <0>         0.0697
     62 H24        -1.8289    2.9613   -7.1141 H         1 <0>         0.0843
     63 H25         1.9476   -0.4012   -4.5764 H         1 <0>         0.0831
     64 H26        -4.1735    7.4215   -8.6684 H         1 <0>         0.0704
     65 H27        -5.3683    6.2928   -8.0614 H         1 <0>         0.0718
     66 H28         4.0550    5.0981   -8.7294 H         1 <0>         0.0606
     67 H29         4.2035    5.3200   -6.9896 H         1 <0>         0.0458
     68 H30         3.3040    7.6236   -7.2205 H         1 <0>         0.0375
     69 H31         4.7929    7.3929   -8.1313 H         1 <0>         0.0392
     70 H32         1.5916    5.3838   -8.5996 H         1 <0>         0.0606
     71 H33         1.6928    5.6841   -6.8667 H         1 <0>         0.0579
     72 H34         1.9504    7.3658   -9.3013 H         1 <0>         0.0571
     73 H35         3.4248    7.0972  -10.2430 H         1 <0>         0.0503
     74 H36         2.4714    3.0747   -8.2388 H         1 <0>         0.0993
     75 H37        -3.0417    5.3386  -11.4260 H         1 <0>         0.3700
     76 H38        -2.9200    6.8973  -10.6453 H         1 <0>         0.3660
     77 H39         2.6832    9.4946  -10.2389 H         1 <0>         0.3465
     78 H40         3.9627    9.4698   -9.0489 H         1 <0>         0.3446
     79 H41         2.3934    0.9566   -7.1391 H         1 <0>         0.3148
     80 H42         0.2924    2.7728   -6.5286 H         1 <0>         0.3220
@<TRIPOS>BOND
     1    1    2 ar
     2    1    3 ar
     3    2    4 ar
     4    3    5 ar
     5    4    6 ar
     6    5    6 ar
     7    6   23 1
     8    7   22 1
     9    7   29 am
    10    7   35 2
    11    8    9 1
    12    8   28 1
    13    8   36 2
    14    9   33 am
    15    9   37 2
    16   10   20 1
    17   10   34 am
    18   10   38 2
    19   11   12 1
    20   11   13 1
    21   12   14 1
    22   13   15 1
    23   14   21 1
    24   15   21 1
    25   16   18 1
    26   16   20 1
    27   17   19 1
    28   17   22 1
    29   18   30 1
    30   19   30 1
    31   20   29 1
    32   21   33 1
    33   22   23 1
    34   22   31 1
    35   24   25 1
    36   24   26 1
    37   25   27 1
    38   26   28 1
    39   27   32 1
    40   28   34 1
    41   29   30 1
    42    1   39 1
    43    2   40 1
    44    3   41 1
    45    4   42 1
    46    5   43 1
    47   11   44 1
    48   11   45 1
    49   12   46 1
    50   12   47 1
    51   13   48 1
    52   13   49 1
    53   14   50 1
    54   14   51 1
    55   15   52 1
    56   15   53 1
    57   16   54 1
    58   16   55 1
    59   17   56 1
    60   17   57 1
    61   18   58 1
    62   18   59 1
    63   19   60 1
    64   19   61 1
    65   20   62 1
    66   21   63 1
    67   23   64 1
    68   23   65 1
    69   24   66 1
    70   24   67 1
    71   25   68 1
    72   25   69 1
    73   26   70 1
    74   26   71 1
    75   27   72 1
    76   27   73 1
    77   28   74 1
    78   31   75 1
    79   31   76 1
    80   32   77 1
    81   32   78 1
    82   33   79 1
    83   34   80 1
@<TRIPOS>MOLECULE
1a46_ligand_332
   80    83     0     0     0
SMALL
USER_CHARGES

mmff94s_NoEstat = 89.31
@<TRIPOS>ATOM
      1 C1         -6.9230    5.5242    0.0960 C.ar      1 <0>        -0.1300
      2 C2         -5.5676    5.7959    0.2823 C.ar      1 <0>        -0.1323
      3 C3         -7.3195    4.5504   -0.8207 C.ar      1 <0>        -0.1309
      4 C4         -4.6088    5.0941   -0.4482 C.ar      1 <0>        -0.1275
      5 C5         -6.3607    3.8486   -1.5512 C.ar      1 <0>        -0.1272
      6 C6         -5.0116    4.1250   -1.3602 C.ar      1 <0>        -0.0843
      7 C7         -2.6002    3.3123   -4.2727 C.2       1 <0>         0.6709
      8 C8          2.7796    3.2097   -6.1637 C.2       1 <0>         0.4867
      9 C9          3.5094    4.2556   -5.3725 C.2       1 <0>         0.5883
     10 C10        -0.2772    3.6966   -6.4593 C.2       1 <0>         0.6572
     11 C11         7.1830    8.1918   -5.8484 C.3       1 <0>        -0.0802
     12 C12         7.7659    6.8037   -5.5991 C.3       1 <0>        -0.0765
     13 C13         5.7801    8.3270   -5.2631 C.3       1 <0>        -0.0774
     14 C14         6.8371    5.7027   -6.1082 C.3       1 <0>        -0.0953
     15 C15         4.8490    7.2281   -5.7724 C.3       1 <0>        -0.0906
     16 C16        -2.3224    3.5471   -7.9015 C.3       1 <0>        -0.0871
     17 C17        -4.9405    4.2595   -4.3066 C.3       1 <0>        -0.0716
     18 C18        -3.0196    4.8544   -7.5301 C.3       1 <0>         0.1333
     19 C19        -4.6999    4.4350   -5.8160 C.3       1 <0>         0.1246
     20 C20        -1.6533    3.1250   -6.6108 C.3       1 <0>         0.0606
     21 C21         5.4326    5.8357   -5.5091 C.3       1 <0>         0.1012
     22 C22        -3.6553    4.0808   -3.4645 C.3       1 <0>         0.1554
     23 C23        -3.9801    3.3700   -2.1460 C.3       1 <0>        -0.0356
     24 C24         1.4445    5.5921   -8.9731 C.3       1 <0>        -0.0795
     25 C25         1.6370    7.0835   -9.2718 C.3       1 <0>        -0.1203
     26 C26         2.1570    5.1335   -7.6933 C.3       1 <0>        -0.0920
     27 C27         1.0854    7.9960   -8.1768 C.3       1 <0>         0.1502
     28 C28         2.0196    3.6328   -7.4097 C.3       1 <0>         0.0224
     29 N1         -2.4817    3.7343   -5.5879 N.am      1 <0>        -0.3553
     30 N2         -3.3016    4.7634   -6.0871 N.3       1 <0>        -0.4320
     31 N3         -3.0521    5.3850   -3.1534 N.3       1 <0>        -0.9031
     32 N4          1.2870    9.3952   -8.5383 N.3       1 <0>        -0.9068
     33 N5          4.5532    4.8136   -6.0733 N.am      1 <0>        -0.5526
     34 N6          0.6426    3.2153   -7.3763 N.am      1 <0>        -0.5576
     35 O1         -1.9182    2.4140   -3.7798 O.2       1 <0>        -0.6710
     36 O2          2.7765    2.0764   -5.7001 O.2       1 <0>        -0.4901
     37 O3          3.1326    4.4777   -4.2335 O.2       1 <0>        -0.5902
     38 O4         -0.0579    4.5177   -5.5765 O.2       1 <0>        -0.5833
     39 H1         -7.6696    6.0707    0.6647 H         1 <0>         0.1320
     40 H2         -5.2590    6.5541    0.9960 H         1 <0>         0.1324
     41 H3         -8.3749    4.3390   -0.9657 H         1 <0>         0.1328
     42 H4         -3.5551    5.3126   -0.2965 H         1 <0>         0.1324
     43 H5         -6.6790    3.0917   -2.2632 H         1 <0>         0.1434
     44 H6          7.8400    8.9518   -5.4106 H         1 <0>         0.0405
     45 H7          7.1471    8.3831   -6.9280 H         1 <0>         0.0421
     46 H8          8.7413    6.7197   -6.0915 H         1 <0>         0.0362
     47 H9          7.9374    6.6670   -4.5243 H         1 <0>         0.0439
     48 H10         5.8343    8.2801   -4.1685 H         1 <0>         0.0350
     49 H11         5.3666    9.3087   -5.5205 H         1 <0>         0.0428
     50 H12         6.7836    5.7489   -7.2040 H         1 <0>         0.0663
     51 H13         7.2590    4.7213   -5.8596 H         1 <0>         0.0466
     52 H14         3.8699    7.3216   -5.2871 H         1 <0>         0.0493
     53 H15         4.6769    7.3657   -6.8481 H         1 <0>         0.0520
     54 H16        -3.0774    2.8030   -8.1842 H         1 <0>         0.0915
     55 H17        -1.6271    3.6703   -8.7375 H         1 <0>         0.0601
     56 H18        -5.5127    5.1168   -3.9266 H         1 <0>         0.0688
     57 H19        -5.5913    3.3849   -4.1715 H         1 <0>         0.0630
     58 H20        -2.3297    5.6917   -7.6901 H         1 <0>         0.0807
     59 H21        -3.9050    5.0413   -8.1478 H         1 <0>         0.0380
     60 H22        -4.9933    3.5117   -6.3344 H         1 <0>         0.0484
     61 H23        -5.3567    5.2300   -6.1889 H         1 <0>         0.0697
     62 H24        -1.5977    2.0405   -6.4809 H         1 <0>         0.0843
     63 H25         5.4703    5.6471   -4.4300 H         1 <0>         0.0831
     64 H26        -3.0622    3.2636   -1.5651 H         1 <0>         0.0704
     65 H27        -4.3327    2.3604   -2.3649 H         1 <0>         0.0718
     66 H28         0.3683    5.4079   -8.8774 H         1 <0>         0.0606
     67 H29         1.7918    5.0040   -9.8306 H         1 <0>         0.0458
     68 H30         2.7129    7.2680   -9.3889 H         1 <0>         0.0375
     69 H31         1.1698    7.3273  -10.2344 H         1 <0>         0.0392
     70 H32         1.7604    5.7005   -6.8419 H         1 <0>         0.0606
     71 H33         3.2243    5.3739   -7.7660 H         1 <0>         0.0579
     72 H34         1.5863    7.7916   -7.2243 H         1 <0>         0.0571
     73 H35         0.0138    7.8267   -8.0361 H         1 <0>         0.0503
     74 H36         2.4714    3.0747   -8.2388 H         1 <0>         0.0993
     75 H37        -3.1119    6.0979   -3.8428 H         1 <0>         0.3700
     76 H38        -2.4431    5.4370   -2.3699 H         1 <0>         0.3660
     77 H39         1.0785   10.0920   -7.8557 H         1 <0>         0.3465
     78 H40         1.4260    9.6167   -9.5010 H         1 <0>         0.3446
     79 H41         4.7203    4.5015   -7.0253 H         1 <0>         0.3148
     80 H42         0.3285    2.5310   -8.0620 H         1 <0>         0.3220
@<TRIPOS>BOND
     1    1    2 ar
     2    1    3 ar
     3    2    4 ar
     4    3    5 ar
     5    4    6 ar
     6    5    6 ar
     7    6   23 1
     8    7   22 1
     9    7   29 am
    10    7   35 2
    11    8    9 1
    12    8   28 1
    13    8   36 2
    14    9   33 am
    15    9   37 2
    16   10   20 1
    17   10   34 am
    18   10   38 2
    19   11   12 1
    20   11   13 1
    21   12   14 1
    22   13   15 1
    23   14   21 1
    24   15   21 1
    25   16   18 1
    26   16   20 1
    27   17   19 1
    28   17   22 1
    29   18   30 1
    30   19   30 1
    31   20   29 1
    32   21   33 1
    33   22   23 1
    34   22   31 1
    35   24   25 1
    36   24   26 1
    37   25   27 1
    38   26   28 1
    39   27   32 1
    40   28   34 1
    41   29   30 1
    42    1   39 1
    43    2   40 1
    44    3   41 1
    45    4   42 1
    46    5   43 1
    47   11   44 1
    48   11   45 1
    49   12   46 1
    50   12   47 1
    51   13   48 1
    52   13   49 1
    53   14   50 1
    54   14   51 1
    55   15   52 1
    56   15   53 1
    57   16   54 1
    58   16   55 1
    59   17   56 1
    60   17   57 1
    61   18   58 1
    62   18   59 1
    63   19   60 1
    64   19   61 1
    65   20   62 1
    66   21   63 1
    67   23   64 1
    68   23   65 1
    69   24   66 1
    70   24   67 1
    71   25   68 1
    72   25   69 1
    73   26   70 1
    74   26   71 1
    75   27   72 1
    76   27   73 1
    77   28   74 1
    78   31   75 1
    79   31   76 1
    80   32   77 1
    81   32   78 1
    82   33   79 1
    83   34   80 1
@<TRIPOS>MOLECULE
1a46_ligand_333
   80    83     0     0     0
SMALL
USER_CHARGES

mmff94s_NoEstat = 89.32
@<TRIPOS>ATOM
      1 C1          5.9504   -1.3642  -10.1903 C.ar      1 <0>        -0.1300
      2 C2          6.6765   -1.8241   -9.0918 C.ar      1 <0>        -0.1323
      3 C3          5.5463   -0.0305  -10.2504 C.ar      1 <0>        -0.1309
      4 C4          6.9984   -0.9504   -8.0532 C.ar      1 <0>        -0.1275
      5 C5          5.8681    0.8432   -9.2119 C.ar      1 <0>        -0.1272
      6 C6          6.5921    0.3776   -8.1201 C.ar      1 <0>        -0.0843
      7 C7          6.1974    2.2868   -4.7798 C.2       1 <0>         0.6709
      8 C8          5.2358    2.3798    1.5634 C.2       1 <0>         0.4867
      9 C9          4.0737    1.7586    0.8450 C.2       1 <0>         0.5883
     10 C10         5.7098    2.8119   -1.6475 C.2       1 <0>         0.6572
     11 C11         4.8049   -2.8393   -1.0543 C.3       1 <0>        -0.0802
     12 C12         5.1334   -1.5466   -1.7966 C.3       1 <0>        -0.0765
     13 C13         4.2837   -2.5703    0.3549 C.3       1 <0>        -0.0774
     14 C14         3.9445   -0.5849   -1.8051 C.3       1 <0>        -0.0953
     15 C15         3.0965   -1.6064    0.3412 C.3       1 <0>        -0.0906
     16 C16         3.6723    3.8570   -2.6681 C.3       1 <0>        -0.0871
     17 C17         4.4858    1.7161   -6.5463 C.3       1 <0>        -0.0716
     18 C18         2.9535    2.6133   -3.1875 C.3       1 <0>         0.1333
     19 C19         3.4659    2.2898   -5.5476 C.3       1 <0>         0.1246
     20 C20         5.1372    3.5153   -2.8394 C.3       1 <0>         0.0606
     21 C21         3.4011   -0.2972   -0.3991 C.3       1 <0>         0.1012
     22 C22         5.8481    1.3265   -5.9256 C.3       1 <0>         0.1554
     23 C23         6.9383    1.3175   -7.0029 C.3       1 <0>        -0.0356
     24 C24         7.6485    3.7409    2.8432 C.3       1 <0>        -0.0795
     25 C25         8.2774    4.8743    3.6620 C.3       1 <0>        -0.1203
     26 C26         6.9719    4.2276    1.5544 C.3       1 <0>        -0.0920
     27 C27         8.9284    4.3945    4.9589 C.3       1 <0>         0.1502
     28 C28         6.2906    3.1130    0.7514 C.3       1 <0>         0.0224
     29 N1          5.1345    2.5635   -3.9339 N.am      1 <0>        -0.3553
     30 N2          3.8653    2.0037   -4.1710 N.3       1 <0>        -0.4320
     31 N3          5.7803   -0.0123   -5.3216 N.3       1 <0>        -0.9031
     32 N4          9.4866    5.5266    5.6910 N.3       1 <0>        -0.9068
     33 N5          4.3625    0.5037    0.3619 N.am      1 <0>        -0.5526
     34 N6          5.7762    3.5917   -0.5046 N.am      1 <0>        -0.5576
     35 O1          7.3278    2.7504   -4.6301 O.2       1 <0>        -0.6710
     36 O2          5.3022    2.1819    2.7699 O.2       1 <0>        -0.4901
     37 O3          3.0463    2.4099    0.7491 O.2       1 <0>        -0.5902
     38 O4          6.0670    1.6440   -1.7490 O.2       1 <0>        -0.5833
     39 H1          5.6997   -2.0446  -10.9989 H         1 <0>         0.1320
     40 H2          6.9911   -2.8626   -9.0451 H         1 <0>         0.1324
     41 H3          4.9808    0.3274  -11.1059 H         1 <0>         0.1328
     42 H4          7.5644   -1.3176   -7.2012 H         1 <0>         0.1324
     43 H5          5.5489    1.8806   -9.2673 H         1 <0>         0.1434
     44 H6          4.0495   -3.3996   -1.6192 H         1 <0>         0.0405
     45 H7          5.6979   -3.4724   -1.0028 H         1 <0>         0.0421
     46 H8          5.9978   -1.0638   -1.3249 H         1 <0>         0.0362
     47 H9          5.4242   -1.7791   -2.8274 H         1 <0>         0.0439
     48 H10         3.9836   -3.5152    0.8221 H         1 <0>         0.0350
     49 H11         5.0912   -2.1554    0.9702 H         1 <0>         0.0428
     50 H12         4.2419    0.3511   -2.2933 H         1 <0>         0.0663
     51 H13         3.1419   -1.0199   -2.4143 H         1 <0>         0.0466
     52 H14         2.2452   -2.1001   -0.1446 H         1 <0>         0.0493
     53 H15         2.7935   -1.3939    1.3737 H         1 <0>         0.0520
     54 H16         3.4181    4.7133   -3.3051 H         1 <0>         0.0915
     55 H17         3.3944    4.0971   -1.6373 H         1 <0>         0.0601
     56 H18         4.0497    0.8441   -7.0524 H         1 <0>         0.0688
     57 H19         4.6431    2.4675   -7.3320 H         1 <0>         0.0630
     58 H20         2.8170    1.9026   -2.3635 H         1 <0>         0.0807
     59 H21         1.9588    2.8453   -3.5837 H         1 <0>         0.0380
     60 H22         3.3744    3.3723   -5.7123 H         1 <0>         0.0484
     61 H23         2.4818    1.8533   -5.7569 H         1 <0>         0.0697
     62 H24         5.7646    4.3810   -3.0694 H         1 <0>         0.0843
     63 H25         2.4927    0.3103   -0.4689 H         1 <0>         0.0831
     64 H26         7.8868    1.0311   -6.5450 H         1 <0>         0.0704
     65 H27         7.0672    2.3317   -7.3854 H         1 <0>         0.0718
     66 H28         8.4445    3.0306    2.5915 H         1 <0>         0.0606
     67 H29         6.9275    3.2007    3.4679 H         1 <0>         0.0458
     68 H30         9.0354    5.3625    3.0356 H         1 <0>         0.0375
     69 H31         7.5157    5.6329    3.8824 H         1 <0>         0.0392
     70 H32         7.7210    4.7221    0.9235 H         1 <0>         0.0606
     71 H33         6.2174    4.9831    1.8035 H         1 <0>         0.0579
     72 H34         9.7251    3.6753    4.7403 H         1 <0>         0.0571
     73 H35         8.1937    3.8977    5.5994 H         1 <0>         0.0503
     74 H36         7.0421    2.3587    0.4881 H         1 <0>         0.0993
     75 H37         4.9287   -0.2795   -4.8849 H         1 <0>         0.3700
     76 H38         6.6336   -0.5056   -5.1950 H         1 <0>         0.3660
     77 H39        10.0430    5.3371    6.4969 H         1 <0>         0.3465
     78 H40         9.1331    6.4373    5.4892 H         1 <0>         0.3446
     79 H41         5.2837    0.1150    0.5408 H         1 <0>         0.3148
     80 H42         5.4441    4.5531   -0.5557 H         1 <0>         0.3220
@<TRIPOS>BOND
     1    1    2 ar
     2    1    3 ar
     3    2    4 ar
     4    3    5 ar
     5    4    6 ar
     6    5    6 ar
     7    6   23 1
     8    7   22 1
     9    7   29 am
    10    7   35 2
    11    8    9 1
    12    8   28 1
    13    8   36 2
    14    9   33 am
    15    9   37 2
    16   10   20 1
    17   10   34 am
    18   10   38 2
    19   11   12 1
    20   11   13 1
    21   12   14 1
    22   13   15 1
    23   14   21 1
    24   15   21 1
    25   16   18 1
    26   16   20 1
    27   17   19 1
    28   17   22 1
    29   18   30 1
    30   19   30 1
    31   20   29 1
    32   21   33 1
    33   22   23 1
    34   22   31 1
    35   24   25 1
    36   24   26 1
    37   25   27 1
    38   26   28 1
    39   27   32 1
    40   28   34 1
    41   29   30 1
    42    1   39 1
    43    2   40 1
    44    3   41 1
    45    4   42 1
    46    5   43 1
    47   11   44 1
    48   11   45 1
    49   12   46 1
    50   12   47 1
    51   13   48 1
    52   13   49 1
    53   14   50 1
    54   14   51 1
    55   15   52 1
    56   15   53 1
    57   16   54 1
    58   16   55 1
    59   17   56 1
    60   17   57 1
    61   18   58 1
    62   18   59 1
    63   19   60 1
    64   19   61 1
    65   20   62 1
    66   21   63 1
    67   23   64 1
    68   23   65 1
    69   24   66 1
    70   24   67 1
    71   25   68 1
    72   25   69 1
    73   26   70 1
    74   26   71 1
    75   27   72 1
    76   27   73 1
    77   28   74 1
    78   31   75 1
    79   31   76 1
    80   32   77 1
    81   32   78 1
    82   33   79 1
    83   34   80 1
@<TRIPOS>MOLECULE
1a46_ligand_334
   80    83     0     0     0
SMALL
USER_CHARGES

mmff94s_NoEstat = 89.54
@<TRIPOS>ATOM
      1 C1         -3.7305   -5.9204  -11.3537 C.ar      1 <0>        -0.1300
      2 C2         -2.4262   -5.5183  -11.6410 C.ar      1 <0>        -0.1323
      3 C3         -4.6750   -4.9808  -10.9404 C.ar      1 <0>        -0.1309
      4 C4         -2.0662   -4.1766  -11.5149 C.ar      1 <0>        -0.1275
      5 C5         -4.3150   -3.6391  -10.8142 C.ar      1 <0>        -0.1272
      6 C6         -3.0129   -3.2458  -11.1023 C.ar      1 <0>        -0.0843
      7 C7         -1.7147   -0.0189   -9.4111 C.2       1 <0>         0.6709
      8 C8          2.7796    3.2097   -6.1637 C.2       1 <0>         0.4867
      9 C9          3.5094    4.2556   -5.3725 C.2       1 <0>         0.5883
     10 C10         0.2181    1.9581   -7.7739 C.2       1 <0>         0.6572
     11 C11         7.1830    8.1918   -5.8484 C.3       1 <0>        -0.0802
     12 C12         7.7659    6.8037   -5.5991 C.3       1 <0>        -0.0765
     13 C13         5.7801    8.3270   -5.2631 C.3       1 <0>        -0.0774
     14 C14         6.8371    5.7027   -6.1082 C.3       1 <0>        -0.0953
     15 C15         4.8490    7.2281   -5.7724 C.3       1 <0>        -0.0906
     16 C16        -1.7326    1.7367   -6.2145 C.3       1 <0>        -0.0871
     17 C17        -3.1871   -1.8587   -8.5042 C.3       1 <0>        -0.0716
     18 C18        -1.5889    0.2745   -5.7969 C.3       1 <0>         0.1333
     19 C19        -3.0480   -1.1203   -7.1617 C.3       1 <0>         0.1246
     20 C20        -1.2590    1.7411   -7.6524 C.3       1 <0>         0.0606
     21 C21         5.4326    5.8357   -5.5091 C.3       1 <0>         0.1012
     22 C22        -2.1125   -1.4947   -9.5555 C.3       1 <0>         0.1554
     23 C23        -2.6257   -1.8026  -10.9666 C.3       1 <0>        -0.0356
     24 C24         1.4445    5.5921   -8.9731 C.3       1 <0>        -0.0795
     25 C25         1.6370    7.0835   -9.2718 C.3       1 <0>        -0.1203
     26 C26         2.1570    5.1335   -7.6933 C.3       1 <0>        -0.0920
     27 C27         1.0854    7.9960   -8.1768 C.3       1 <0>         0.1502
     28 C28         2.0196    3.6328   -7.4097 C.3       1 <0>         0.0224
     29 N1         -1.5278    0.3875   -8.0990 N.am      1 <0>        -0.3553
     30 N2         -1.7250   -0.5121   -7.0349 N.3       1 <0>        -0.4320
     31 N3         -0.8818   -2.2667   -9.3297 N.3       1 <0>        -0.9031
     32 N4          1.2870    9.3952   -8.5383 N.3       1 <0>        -0.9068
     33 N5          4.5532    4.8136   -6.0733 N.am      1 <0>        -0.5526
     34 N6          0.6426    3.2153   -7.3763 N.am      1 <0>        -0.5576
     35 O1         -1.5651    0.7213  -10.3831 O.2       1 <0>        -0.6710
     36 O2          2.7765    2.0764   -5.7001 O.2       1 <0>        -0.4901
     37 O3          3.1326    4.4777   -4.2335 O.2       1 <0>        -0.5902
     38 O4          0.9290    1.0536   -8.1959 O.2       1 <0>        -0.5833
     39 H1         -4.0108   -6.9651  -11.4519 H         1 <0>         0.1320
     40 H2         -1.6909   -6.2500  -11.9629 H         1 <0>         0.1324
     41 H3         -5.6906   -5.2940  -10.7166 H         1 <0>         0.1328
     42 H4         -1.0476   -3.8726  -11.7408 H         1 <0>         0.1324
     43 H5         -5.0575   -2.9141  -10.4915 H         1 <0>         0.1434
     44 H6          7.8400    8.9518   -5.4106 H         1 <0>         0.0405
     45 H7          7.1471    8.3831   -6.9280 H         1 <0>         0.0421
     46 H8          8.7413    6.7197   -6.0915 H         1 <0>         0.0362
     47 H9          7.9374    6.6670   -4.5243 H         1 <0>         0.0439
     48 H10         5.8343    8.2801   -4.1685 H         1 <0>         0.0350
     49 H11         5.3666    9.3087   -5.5205 H         1 <0>         0.0428
     50 H12         6.7836    5.7489   -7.2040 H         1 <0>         0.0663
     51 H13         7.2590    4.7213   -5.8596 H         1 <0>         0.0466
     52 H14         3.8699    7.3216   -5.2871 H         1 <0>         0.0493
     53 H15         4.6769    7.3657   -6.8481 H         1 <0>         0.0520
     54 H16        -2.7915    2.0208   -6.1758 H         1 <0>         0.0915
     55 H17        -1.1685    2.4118   -5.5637 H         1 <0>         0.0601
     56 H18        -3.1756   -2.9428   -8.3269 H         1 <0>         0.0688
     57 H19        -4.1842   -1.6345   -8.9071 H         1 <0>         0.0630
     58 H20        -0.5812    0.1087   -5.3971 H         1 <0>         0.0807
     59 H21        -2.2993   -0.0031   -5.0104 H         1 <0>         0.0380
     60 H22        -3.8377   -0.3598   -7.0886 H         1 <0>         0.0484
     61 H23        -3.2188   -1.8335   -6.3463 H         1 <0>         0.0697
     62 H24        -1.7729    2.4744   -8.2803 H         1 <0>         0.0843
     63 H25         5.4703    5.6471   -4.4300 H         1 <0>         0.0831
     64 H26        -1.8489   -1.5475  -11.6898 H         1 <0>         0.0704
     65 H27        -3.4798   -1.1578  -11.1818 H         1 <0>         0.0718
     66 H28         0.3683    5.4079   -8.8774 H         1 <0>         0.0606
     67 H29         1.7918    5.0040   -9.8306 H         1 <0>         0.0458
     68 H30         2.7129    7.2680   -9.3889 H         1 <0>         0.0375
     69 H31         1.1698    7.3273  -10.2344 H         1 <0>         0.0392
     70 H32         1.7604    5.7005   -6.8419 H         1 <0>         0.0606
     71 H33         3.2243    5.3739   -7.7660 H         1 <0>         0.0579
     72 H34         1.5863    7.7916   -7.2243 H         1 <0>         0.0571
     73 H35         0.0138    7.8267   -8.0361 H         1 <0>         0.0503
     74 H36         2.4714    3.0747   -8.2388 H         1 <0>         0.0993
     75 H37        -0.6260   -2.4640   -8.3900 H         1 <0>         0.3700
     76 H38        -0.2603   -2.3800  -10.0968 H         1 <0>         0.3660
     77 H39         1.0785   10.0920   -7.8557 H         1 <0>         0.3465
     78 H40         1.4260    9.6167   -9.5010 H         1 <0>         0.3446
     79 H41         4.7203    4.5015   -7.0253 H         1 <0>         0.3148
     80 H42        -0.0552    3.8781   -7.0434 H         1 <0>         0.3220
@<TRIPOS>BOND
     1    1    2 ar
     2    1    3 ar
     3    2    4 ar
     4    3    5 ar
     5    4    6 ar
     6    5    6 ar
     7    6   23 1
     8    7   22 1
     9    7   29 am
    10    7   35 2
    11    8    9 1
    12    8   28 1
    13    8   36 2
    14    9   33 am
    15    9   37 2
    16   10   20 1
    17   10   34 am
    18   10   38 2
    19   11   12 1
    20   11   13 1
    21   12   14 1
    22   13   15 1
    23   14   21 1
    24   15   21 1
    25   16   18 1
    26   16   20 1
    27   17   19 1
    28   17   22 1
    29   18   30 1
    30   19   30 1
    31   20   29 1
    32   21   33 1
    33   22   23 1
    34   22   31 1
    35   24   25 1
    36   24   26 1
    37   25   27 1
    38   26   28 1
    39   27   32 1
    40   28   34 1
    41   29   30 1
    42    1   39 1
    43    2   40 1
    44    3   41 1
    45    4   42 1
    46    5   43 1
    47   11   44 1
    48   11   45 1
    49   12   46 1
    50   12   47 1
    51   13   48 1
    52   13   49 1
    53   14   50 1
    54   14   51 1
    55   15   52 1
    56   15   53 1
    57   16   54 1
    58   16   55 1
    59   17   56 1
    60   17   57 1
    61   18   58 1
    62   18   59 1
    63   19   60 1
    64   19   61 1
    65   20   62 1
    66   21   63 1
    67   23   64 1
    68   23   65 1
    69   24   66 1
    70   24   67 1
    71   25   68 1
    72   25   69 1
    73   26   70 1
    74   26   71 1
    75   27   72 1
    76   27   73 1
    77   28   74 1
    78   31   75 1
    79   31   76 1
    80   32   77 1
    81   32   78 1
    82   33   79 1
    83   34   80 1
@<TRIPOS>MOLECULE
1a46_ligand_335
   80    83     0     0     0
SMALL
USER_CHARGES

mmff94s_NoEstat = 89.54
@<TRIPOS>ATOM
      1 C1         -1.3866   -0.9098   -5.3262 C.ar      1 <0>        -0.1300
      2 C2         -0.7865   -1.2909   -4.1261 C.ar      1 <0>        -0.1323
      3 C3         -0.7738    0.0422   -6.1410 C.ar      1 <0>        -0.1309
      4 C4          0.4264   -0.7199   -3.7407 C.ar      1 <0>        -0.1275
      5 C5          0.4391    0.6133   -5.7556 C.ar      1 <0>        -0.1272
      6 C6          1.0312    0.2285   -4.5579 C.ar      1 <0>        -0.0843
      7 C7          3.4461    2.7409   -2.8804 C.2       1 <0>         0.6709
      8 C8          5.2358    2.3798    1.5634 C.2       1 <0>         0.4867
      9 C9          4.0737    1.7586    0.8450 C.2       1 <0>         0.5883
     10 C10         4.7954    4.5647   -0.6048 C.2       1 <0>         0.6572
     11 C11         4.4065   -3.0273   -0.3301 C.3       1 <0>        -0.0802
     12 C12         4.6731   -1.7761   -1.1628 C.3       1 <0>        -0.0765
     13 C13         3.9965   -2.6835    1.0994 C.3       1 <0>        -0.0774
     14 C14         3.4850   -0.8139   -1.1289 C.3       1 <0>        -0.0953
     15 C15         2.8097   -1.7194    1.1279 C.3       1 <0>        -0.0906
     16 C16         3.8049    6.2915   -2.1287 C.3       1 <0>        -0.0871
     17 C17         1.2717    3.1335   -4.1023 C.3       1 <0>        -0.0716
     18 C18         2.3155    6.0451   -1.8960 C.3       1 <0>         0.1333
     19 C19         1.4367    4.5929   -3.6442 C.3       1 <0>         0.1246
     20 C20         4.4137    4.9104   -2.0113 C.3       1 <0>         0.0606
     21 C21         3.0526   -0.4516    0.2982 C.3       1 <0>         0.1012
     22 C22         2.1141    2.1082   -3.3074 C.3       1 <0>         0.1554
     23 C23         2.3358    0.8427   -4.1433 C.3       1 <0>        -0.0356
     24 C24         8.0800    4.9598    0.7851 C.3       1 <0>        -0.0795
     25 C25         8.7880    6.0338    1.6192 C.3       1 <0>        -0.1203
     26 C26         6.9719    4.2276    1.5544 C.3       1 <0>        -0.0920
     27 C27         9.9095    6.7454    0.8629 C.3       1 <0>         0.1502
     28 C28         6.2906    3.1130    0.7514 C.3       1 <0>         0.0224
     29 N1          3.3234    4.0296   -2.3846 N.am      1 <0>        -0.3553
     30 N2          2.0658    4.6585   -2.3264 N.3       1 <0>        -0.4320
     31 N3          1.4316    1.7288   -2.0617 N.3       1 <0>        -0.9031
     32 N4         10.5470    7.7366    1.7233 N.3       1 <0>        -0.9068
     33 N5          4.0688    0.3864    0.9385 N.am      1 <0>        -0.5526
     34 N6          5.7762    3.5917   -0.5046 N.am      1 <0>        -0.5576
     35 O1          4.5174    2.1404   -2.9635 O.2       1 <0>        -0.6710
     36 O2          5.3022    2.1819    2.7699 O.2       1 <0>        -0.4901
     37 O3          3.3003    2.4996    0.2605 O.2       1 <0>        -0.5902
     38 O4          4.2448    5.1367    0.3286 O.2       1 <0>        -0.5833
     39 H1         -2.3310   -1.3544   -5.6263 H         1 <0>         0.1320
     40 H2         -1.2637   -2.0322   -3.4918 H         1 <0>         0.1324
     41 H3         -1.2413    0.3390   -7.0753 H         1 <0>         0.1328
     42 H4          0.8865   -1.0229   -2.8039 H         1 <0>         0.1324
     43 H5          0.9091    1.3543   -6.3967 H         1 <0>         0.1434
     44 H6          3.6105   -3.6151   -0.8039 H         1 <0>         0.0405
     45 H7          5.3022   -3.6585   -0.3154 H         1 <0>         0.0421
     46 H8          5.5706   -1.2707   -0.7862 H         1 <0>         0.0362
     47 H9          4.8830   -2.0630   -2.1996 H         1 <0>         0.0439
     48 H10         3.7359   -3.6020    1.6377 H         1 <0>         0.0350
     49 H11         4.8487   -2.2383    1.6270 H         1 <0>         0.0428
     50 H12         3.7413    0.0946   -1.6874 H         1 <0>         0.0663
     51 H13         2.6383   -1.2788   -1.6497 H         1 <0>         0.0466
     52 H14         1.9241   -2.2364    0.7368 H         1 <0>         0.0493
     53 H15         2.5879   -1.4524    2.1683 H         1 <0>         0.0520
     54 H16         3.9529    6.6727   -3.1467 H         1 <0>         0.0915
     55 H17         4.2210    7.0169   -1.4230 H         1 <0>         0.0601
     56 H18         0.2104    2.8539   -4.0534 H         1 <0>         0.0688
     57 H19         1.5429    3.0844   -5.1656 H         1 <0>         0.0630
     58 H20         2.1000    6.1125   -0.8228 H         1 <0>         0.0807
     59 H21         1.6891    6.7894   -2.3998 H         1 <0>         0.0380
     60 H22         2.0325    5.1365   -4.3904 H         1 <0>         0.0484
     61 H23         0.4495    5.0696   -3.6188 H         1 <0>         0.0697
     62 H24         5.2834    4.7591   -2.6569 H         1 <0>         0.0843
     63 H25         2.1402    0.1531    0.2678 H         1 <0>         0.0831
     64 H26         2.9230    0.1310   -3.5601 H         1 <0>         0.0704
     65 H27         2.9322    1.0978   -5.0213 H         1 <0>         0.0718
     66 H28         7.6494    5.4516   -0.0948 H         1 <0>         0.0606
     67 H29         8.8216    4.2418    0.4157 H         1 <0>         0.0458
     68 H30         8.0356    6.7709    1.9287 H         1 <0>         0.0375
     69 H31         9.1825    5.5824    2.5383 H         1 <0>         0.0392
     70 H32         6.2171    4.9575    1.8728 H         1 <0>         0.0606
     71 H33         7.3929    3.7874    2.4660 H         1 <0>         0.0579
     72 H34         9.5108    7.2416   -0.0285 H         1 <0>         0.0571
     73 H35        10.6706    6.0303    0.5375 H         1 <0>         0.0503
     74 H36         7.0421    2.3587    0.4881 H         1 <0>         0.0993
     75 H37         0.9075    2.4291   -1.5903 H         1 <0>         0.3700
     76 H38         1.6843    0.8646   -1.6413 H         1 <0>         0.3660
     77 H39        11.2163    8.3531    1.3147 H         1 <0>         0.3465
     78 H40        10.4498    7.6340    2.7108 H         1 <0>         0.3446
     79 H41         4.8027   -0.0660    1.4755 H         1 <0>         0.3148
     80 H42         6.1527    3.1949   -1.3636 H         1 <0>         0.3220
@<TRIPOS>BOND
     1    1    2 ar
     2    1    3 ar
     3    2    4 ar
     4    3    5 ar
     5    4    6 ar
     6    5    6 ar
     7    6   23 1
     8    7   22 1
     9    7   29 am
    10    7   35 2
    11    8    9 1
    12    8   28 1
    13    8   36 2
    14    9   33 am
    15    9   37 2
    16   10   20 1
    17   10   34 am
    18   10   38 2
    19   11   12 1
    20   11   13 1
    21   12   14 1
    22   13   15 1
    23   14   21 1
    24   15   21 1
    25   16   18 1
    26   16   20 1
    27   17   19 1
    28   17   22 1
    29   18   30 1
    30   19   30 1
    31   20   29 1
    32   21   33 1
    33   22   23 1
    34   22   31 1
    35   24   25 1
    36   24   26 1
    37   25   27 1
    38   26   28 1
    39   27   32 1
    40   28   34 1
    41   29   30 1
    42    1   39 1
    43    2   40 1
    44    3   41 1
    45    4   42 1
    46    5   43 1
    47   11   44 1
    48   11   45 1
    49   12   46 1
    50   12   47 1
    51   13   48 1
    52   13   49 1
    53   14   50 1
    54   14   51 1
    55   15   52 1
    56   15   53 1
    57   16   54 1
    58   16   55 1
    59   17   56 1
    60   17   57 1
    61   18   58 1
    62   18   59 1
    63   19   60 1
    64   19   61 1
    65   20   62 1
    66   21   63 1
    67   23   64 1
    68   23   65 1
    69   24   66 1
    70   24   67 1
    71   25   68 1
    72   25   69 1
    73   26   70 1
    74   26   71 1
    75   27   72 1
    76   27   73 1
    77   28   74 1
    78   31   75 1
    79   31   76 1
    80   32   77 1
    81   32   78 1
    82   33   79 1
    83   34   80 1
@<TRIPOS>MOLECULE
1a46_ligand_336
   80    83     0     0     0
SMALL
USER_CHARGES

mmff94s_NoEstat = 89.55
@<TRIPOS>ATOM
      1 C1          9.3778    1.4071  -10.5376 C.ar      1 <0>        -0.1300
      2 C2         10.0902    1.0682   -9.3873 C.ar      1 <0>        -0.1323
      3 C3          8.4252    2.4251  -10.4935 C.ar      1 <0>        -0.1309
      4 C4          9.8499    1.7472   -8.1928 C.ar      1 <0>        -0.1275
      5 C5          8.1849    3.1040   -9.2989 C.ar      1 <0>        -0.1272
      6 C6          8.8988    2.7607   -8.1564 C.ar      1 <0>        -0.0843
      7 C7          7.2708    3.5496   -4.7381 C.2       1 <0>         0.6709
      8 C8          5.2358    2.3798    1.5634 C.2       1 <0>         0.4867
      9 C9          4.0737    1.7586    0.8450 C.2       1 <0>         0.5883
     10 C10         6.2126    3.1256   -1.7338 C.2       1 <0>         0.6572
     11 C11         1.7926   -2.0333    3.0392 C.3       1 <0>        -0.0802
     12 C12         2.8691   -2.0092    1.9574 C.3       1 <0>        -0.0765
     13 C13         1.4148   -0.6275    3.4983 C.3       1 <0>        -0.0774
     14 C14         2.4660   -1.1175    0.7822 C.3       1 <0>        -0.0953
     15 C15         1.0147    0.2608    2.3194 C.3       1 <0>        -0.0906
     16 C16         4.0677    3.4116   -2.9998 C.3       1 <0>        -0.0871
     17 C17         6.2374    2.7118   -6.8841 C.3       1 <0>        -0.0716
     18 C18         4.0600    2.1270   -3.8260 C.3       1 <0>         0.1333
     19 C19         4.9528    2.5709   -6.0494 C.3       1 <0>         0.1246
     20 C20         5.5372    3.7637   -2.9085 C.3       1 <0>         0.0606
     21 C21         2.0813    0.3030    1.2170 C.3       1 <0>         0.1012
     22 C22         7.5393    2.8062   -6.0542 C.3       1 <0>         0.1554
     23 C23         8.6404    3.4910   -6.8715 C.3       1 <0>        -0.0356
     24 C24         6.0158    5.3379    2.0114 C.3       1 <0>        -0.0795
     25 C25         6.7209    6.4716    2.7653 C.3       1 <0>        -0.1203
     26 C26         6.9719    4.2276    1.5544 C.3       1 <0>        -0.0920
     27 C27         5.7742    7.5909    3.1979 C.3       1 <0>         0.1502
     28 C28         6.2906    3.1130    0.7514 C.3       1 <0>         0.0224
     29 N1          6.1017    3.1624   -4.1017 N.am      1 <0>        -0.3553
     30 N2          5.2634    2.1873   -4.6736 N.3       1 <0>        -0.4320
     31 N3          8.0097    1.4670   -5.6708 N.3       1 <0>        -0.9031
     32 N4          6.5168    8.6391    3.8900 N.3       1 <0>        -0.9068
     33 N5          3.2649    1.0281    1.6841 N.am      1 <0>        -0.5526
     34 N6          5.7762    3.5917   -0.5046 N.am      1 <0>        -0.5576
     35 O1          8.0408    4.4006   -4.2931 O.2       1 <0>        -0.6710
     36 O2          5.3022    2.1819    2.7699 O.2       1 <0>        -0.4901
     37 O3          3.9822    1.9394   -0.3582 O.2       1 <0>        -0.5902
     38 O4          7.0689    2.2691   -1.9210 O.2       1 <0>        -0.5833
     39 H1          9.5648    0.8784  -11.4677 H         1 <0>         0.1320
     40 H2         10.8319    0.2756   -9.4218 H         1 <0>         0.1324
     41 H3          7.8704    2.6887  -11.3892 H         1 <0>         0.1328
     42 H4         10.4098    1.4763   -7.3016 H         1 <0>         0.1324
     43 H5          7.4407    3.8957   -9.2740 H         1 <0>         0.1434
     44 H6          0.9001   -2.5398    2.6511 H         1 <0>         0.0405
     45 H7          2.1436   -2.6194    3.8961 H         1 <0>         0.0421
     46 H8          3.8122   -1.6516    2.3880 H         1 <0>         0.0362
     47 H9          3.0515   -3.0286    1.5983 H         1 <0>         0.0439
     48 H10         0.5852   -0.6849    4.2123 H         1 <0>         0.0350
     49 H11         2.2609   -0.1774    4.0315 H         1 <0>         0.0428
     50 H12         3.2898   -1.0805    0.0591 H         1 <0>         0.0663
     51 H13         1.6118   -1.5754    0.2674 H         1 <0>         0.0466
     52 H14         0.0770   -0.1178    1.8931 H         1 <0>         0.0493
     53 H15         0.8108    1.2743    2.6856 H         1 <0>         0.0520
     54 H16         3.5352    4.1976   -3.5496 H         1 <0>         0.0915
     55 H17         3.5853    3.2820   -2.0262 H         1 <0>         0.0601
     56 H18         6.3096    1.8704   -7.5867 H         1 <0>         0.0688
     57 H19         6.1343    3.6107   -7.5070 H         1 <0>         0.0630
     58 H20         4.1583    1.2642   -3.1562 H         1 <0>         0.0807
     59 H21         3.1259    1.9993   -4.3842 H         1 <0>         0.0380
     60 H22         4.4028    3.5219   -6.0765 H         1 <0>         0.0484
     61 H23         4.3072    1.8183   -6.5178 H         1 <0>         0.0697
     62 H24         5.7284    4.8402   -2.8795 H         1 <0>         0.0843
     63 H25         1.7044    0.8657    0.3566 H         1 <0>         0.0831
     64 H26         9.5506    3.5379   -6.2709 H         1 <0>         0.0704
     65 H27         8.3431    4.5219   -7.0731 H         1 <0>         0.0718
     66 H28         5.2579    4.9142    2.6804 H         1 <0>         0.0606
     67 H29         5.4809    5.7546    1.1500 H         1 <0>         0.0458
     68 H30         7.2000    6.0392    3.6534 H         1 <0>         0.0375
     69 H31         7.5258    6.8807    2.1417 H         1 <0>         0.0392
     70 H32         7.4599    3.7926    2.4354 H         1 <0>         0.0606
     71 H33         7.7645    4.6634    0.9347 H         1 <0>         0.0579
     72 H34         4.9986    7.1962    3.8630 H         1 <0>         0.0571
     73 H35         5.2784    8.0349    2.3297 H         1 <0>         0.0503
     74 H36         7.0421    2.3587    0.4881 H         1 <0>         0.0993
     75 H37         7.3242    0.7786   -5.4626 H         1 <0>         0.3700
     76 H38         8.9706    1.3637   -5.4396 H         1 <0>         0.3660
     77 H39         5.9996    9.3711    4.3277 H         1 <0>         0.3465
     78 H40         7.4997    8.7018    3.7315 H         1 <0>         0.3446
     79 H41         3.4989    0.9899    2.6717 H         1 <0>         0.3148
     80 H42         5.0545    4.3100   -0.4888 H         1 <0>         0.3220
@<TRIPOS>BOND
     1    1    2 ar
     2    1    3 ar
     3    2    4 ar
     4    3    5 ar
     5    4    6 ar
     6    5    6 ar
     7    6   23 1
     8    7   22 1
     9    7   29 am
    10    7   35 2
    11    8    9 1
    12    8   28 1
    13    8   36 2
    14    9   33 am
    15    9   37 2
    16   10   20 1
    17   10   34 am
    18   10   38 2
    19   11   12 1
    20   11   13 1
    21   12   14 1
    22   13   15 1
    23   14   21 1
    24   15   21 1
    25   16   18 1
    26   16   20 1
    27   17   19 1
    28   17   22 1
    29   18   30 1
    30   19   30 1
    31   20   29 1
    32   21   33 1
    33   22   23 1
    34   22   31 1
    35   24   25 1
    36   24   26 1
    37   25   27 1
    38   26   28 1
    39   27   32 1
    40   28   34 1
    41   29   30 1
    42    1   39 1
    43    2   40 1
    44    3   41 1
    45    4   42 1
    46    5   43 1
    47   11   44 1
    48   11   45 1
    49   12   46 1
    50   12   47 1
    51   13   48 1
    52   13   49 1
    53   14   50 1
    54   14   51 1
    55   15   52 1
    56   15   53 1
    57   16   54 1
    58   16   55 1
    59   17   56 1
    60   17   57 1
    61   18   58 1
    62   18   59 1
    63   19   60 1
    64   19   61 1
    65   20   62 1
    66   21   63 1
    67   23   64 1
    68   23   65 1
    69   24   66 1
    70   24   67 1
    71   25   68 1
    72   25   69 1
    73   26   70 1
    74   26   71 1
    75   27   72 1
    76   27   73 1
    77   28   74 1
    78   31   75 1
    79   31   76 1
    80   32   77 1
    81   32   78 1
    82   33   79 1
    83   34   80 1
@<TRIPOS>MOLECULE
1a46_ligand_337
   80    83     0     0     0
SMALL
USER_CHARGES

mmff94s_NoEstat = 89.65
@<TRIPOS>ATOM
      1 C1          1.7409   12.3935   -1.5361 C.ar      1 <0>        -0.1300
      2 C2          2.2430   11.8090   -0.3734 C.ar      1 <0>        -0.1323
      3 C3          1.4857   11.6057   -2.6586 C.ar      1 <0>        -0.1309
      4 C4          2.4901   10.4368   -0.3331 C.ar      1 <0>        -0.1275
      5 C5          1.7328   10.2334   -2.6183 C.ar      1 <0>        -0.1272
      6 C6          2.2334    9.6580   -1.4559 C.ar      1 <0>        -0.0843
      7 C7          4.2075    6.3518   -1.8158 C.2       1 <0>         0.6709
      8 C8          5.2358    2.3798    1.5634 C.2       1 <0>         0.4867
      9 C9          4.0737    1.7586    0.8450 C.2       1 <0>         0.5883
     10 C10         6.5648    4.1956   -1.4701 C.2       1 <0>         0.6572
     11 C11         4.0644   -3.1378    0.1954 C.3       1 <0>        -0.0802
     12 C12         4.9349   -2.3079   -0.7445 C.3       1 <0>        -0.0765
     13 C13         3.3449   -2.2675    1.2224 C.3       1 <0>        -0.0774
     14 C14         4.1346   -1.1879   -1.4107 C.3       1 <0>        -0.0953
     15 C15         2.5480   -1.1477    0.5515 C.3       1 <0>        -0.0906
     16 C16         6.7154    4.7360   -3.9137 C.3       1 <0>        -0.0871
     17 C17         4.1811    8.4057   -3.2842 C.3       1 <0>        -0.0716
     18 C18         7.2083    6.1802   -3.8482 C.3       1 <0>         0.1333
     19 C19         5.3192    7.7064   -4.0474 C.3       1 <0>         0.1246
     20 C20         5.8189    4.6139   -2.6998 C.3       1 <0>         0.0606
     21 C21         3.4011   -0.2972   -0.3991 C.3       1 <0>         0.1012
     22 C22         3.9302    7.8611   -1.8583 C.3       1 <0>         0.1554
     23 C23         2.4991    8.1819   -1.4126 C.3       1 <0>        -0.0356
     24 C24         7.6485    3.7409    2.8432 C.3       1 <0>        -0.0795
     25 C25         8.2774    4.8743    3.6620 C.3       1 <0>        -0.1203
     26 C26         6.9719    4.2276    1.5544 C.3       1 <0>        -0.0920
     27 C27         8.9284    4.3945    4.9589 C.3       1 <0>         0.1502
     28 C28         6.2906    3.1130    0.7514 C.3       1 <0>         0.0224
     29 N1          5.3643    5.9735   -2.4795 N.am      1 <0>        -0.3553
     30 N2          6.1593    6.9309   -3.1367 N.3       1 <0>        -0.4320
     31 N3          4.8633    8.4685   -0.8981 N.3       1 <0>        -0.9031
     32 N4          9.4866    5.5266    5.6910 N.3       1 <0>        -0.9068
     33 N5          4.3625    0.5037    0.3619 N.am      1 <0>        -0.5526
     34 N6          5.7762    3.5917   -0.5046 N.am      1 <0>        -0.5576
     35 O1          3.4676    5.5621   -1.2293 O.2       1 <0>        -0.6710
     36 O2          5.3022    2.1819    2.7699 O.2       1 <0>        -0.4901
     37 O3          3.0463    2.4099    0.7491 O.2       1 <0>        -0.5902
     38 O4          7.7705    4.4014   -1.3956 O.2       1 <0>        -0.5833
     39 H1          1.5486   13.4619   -1.5674 H         1 <0>         0.1320
     40 H2          2.4416   12.4225    0.5006 H         1 <0>         0.1324
     41 H3          1.0949   12.0609   -3.5639 H         1 <0>         0.1328
     42 H4          2.8813    9.9902    0.5771 H         1 <0>         0.1324
     43 H5          1.5311    9.6276   -3.4978 H         1 <0>         0.1434
     44 H6          3.3227   -3.6924   -0.3927 H         1 <0>         0.0405
     45 H7          4.6827   -3.8816    0.7106 H         1 <0>         0.0421
     46 H8          5.7747   -1.8806   -0.1833 H         1 <0>         0.0362
     47 H9          5.3667   -2.9577   -1.5143 H         1 <0>         0.0439
     48 H10         2.6703   -2.8890    1.8223 H         1 <0>         0.0350
     49 H11         4.0784   -1.8371    1.9148 H         1 <0>         0.0428
     50 H12         4.8088   -0.5817   -2.0279 H         1 <0>         0.0663
     51 H13         3.3981   -1.6353   -2.0902 H         1 <0>         0.0466
     52 H14         1.7203   -1.5929   -0.0152 H         1 <0>         0.0493
     53 H15         2.0985   -0.5129    1.3247 H         1 <0>         0.0520
     54 H16         6.1203    4.5986   -4.8250 H         1 <0>         0.0915
     55 H17         7.5395    4.0162   -3.9259 H         1 <0>         0.0601
     56 H18         4.3839    9.4843   -3.2353 H         1 <0>         0.0688
     57 H19         3.2652    8.3026   -3.8819 H         1 <0>         0.0630
     58 H20         8.1249    6.2239   -3.2478 H         1 <0>         0.0807
     59 H21         7.4504    6.5803   -4.8390 H         1 <0>         0.0380
     60 H22         4.8852    7.0622   -4.8247 H         1 <0>         0.0484
     61 H23         5.9181    8.4662   -4.5637 H         1 <0>         0.0697
     62 H24         4.9753    3.9333   -2.8455 H         1 <0>         0.0843
     63 H25         2.7649    0.4200   -0.9282 H         1 <0>         0.0831
     64 H26         2.3479    7.7977   -0.4022 H         1 <0>         0.0704
     65 H27         1.7988    7.6502   -2.0594 H         1 <0>         0.0718
     66 H28         8.4445    3.0306    2.5915 H         1 <0>         0.0606
     67 H29         6.9275    3.2007    3.4679 H         1 <0>         0.0458
     68 H30         9.0354    5.3625    3.0356 H         1 <0>         0.0375
     69 H31         7.5157    5.6329    3.8824 H         1 <0>         0.0392
     70 H32         7.7210    4.7221    0.9235 H         1 <0>         0.0606
     71 H33         6.2174    4.9831    1.8035 H         1 <0>         0.0579
     72 H34         9.7251    3.6753    4.7403 H         1 <0>         0.0571
     73 H35         8.1937    3.8977    5.5994 H         1 <0>         0.0503
     74 H36         7.0421    2.3587    0.4881 H         1 <0>         0.0993
     75 H37         5.7856    8.6648   -1.2112 H         1 <0>         0.3700
     76 H38         4.6041    8.4681    0.0612 H         1 <0>         0.3660
     77 H39        10.0430    5.3371    6.4969 H         1 <0>         0.3465
     78 H40         9.1331    6.4373    5.4892 H         1 <0>         0.3446
     79 H41         5.2837    0.1150    0.5408 H         1 <0>         0.3148
     80 H42         4.7816    3.4809   -0.6931 H         1 <0>         0.3220
@<TRIPOS>BOND
     1    1    2 ar
     2    1    3 ar
     3    2    4 ar
     4    3    5 ar
     5    4    6 ar
     6    5    6 ar
     7    6   23 1
     8    7   22 1
     9    7   29 am
    10    7   35 2
    11    8    9 1
    12    8   28 1
    13    8   36 2
    14    9   33 am
    15    9   37 2
    16   10   20 1
    17   10   34 am
    18   10   38 2
    19   11   12 1
    20   11   13 1
    21   12   14 1
    22   13   15 1
    23   14   21 1
    24   15   21 1
    25   16   18 1
    26   16   20 1
    27   17   19 1
    28   17   22 1
    29   18   30 1
    30   19   30 1
    31   20   29 1
    32   21   33 1
    33   22   23 1
    34   22   31 1
    35   24   25 1
    36   24   26 1
    37   25   27 1
    38   26   28 1
    39   27   32 1
    40   28   34 1
    41   29   30 1
    42    1   39 1
    43    2   40 1
    44    3   41 1
    45    4   42 1
    46    5   43 1
    47   11   44 1
    48   11   45 1
    49   12   46 1
    50   12   47 1
    51   13   48 1
    52   13   49 1
    53   14   50 1
    54   14   51 1
    55   15   52 1
    56   15   53 1
    57   16   54 1
    58   16   55 1
    59   17   56 1
    60   17   57 1
    61   18   58 1
    62   18   59 1
    63   19   60 1
    64   19   61 1
    65   20   62 1
    66   21   63 1
    67   23   64 1
    68   23   65 1
    69   24   66 1
    70   24   67 1
    71   25   68 1
    72   25   69 1
    73   26   70 1
    74   26   71 1
    75   27   72 1
    76   27   73 1
    77   28   74 1
    78   31   75 1
    79   31   76 1
    80   32   77 1
    81   32   78 1
    82   33   79 1
    83   34   80 1
@<TRIPOS>MOLECULE
1a46_ligand_338
   80    83     0     0     0
SMALL
USER_CHARGES

mmff94s_NoEstat = 89.65
@<TRIPOS>ATOM
      1 C1         11.1945    5.3647   -9.7731 C.ar      1 <0>        -0.1300
      2 C2         11.8337    5.1154   -8.5586 C.ar      1 <0>        -0.1323
      3 C3          9.8873    5.8513   -9.7863 C.ar      1 <0>        -0.1309
      4 C4         11.1656    5.3526   -7.3573 C.ar      1 <0>        -0.1275
      5 C5          9.2192    6.0884   -8.5850 C.ar      1 <0>        -0.1272
      6 C6          9.8628    5.8375   -7.3783 C.ar      1 <0>        -0.0843
      7 C7          7.6425    5.1042   -4.2977 C.2       1 <0>         0.6709
      8 C8          5.2358    2.3798    1.5634 C.2       1 <0>         0.4867
      9 C9          5.3950    2.3039    3.0538 C.2       1 <0>         0.5883
     10 C10         6.5256    3.6321   -1.6689 C.2       1 <0>         0.6572
     11 C11         6.1281   -2.1543    5.0498 C.3       1 <0>        -0.0802
     12 C12         7.3391   -1.4500    4.4438 C.3       1 <0>        -0.0765
     13 C13         4.8541   -1.3271    4.9000 C.3       1 <0>        -0.0774
     14 C14         7.5094   -0.0385    5.0074 C.3       1 <0>        -0.0953
     15 C15         5.0301    0.0842    5.4622 C.3       1 <0>        -0.0906
     16 C16         4.6595    3.2577   -3.3009 C.3       1 <0>        -0.0871
     17 C17         7.3760    4.3986   -6.7074 C.3       1 <0>        -0.0716
     18 C18         5.3367    2.3027   -4.2819 C.3       1 <0>         0.1333
     19 C19         6.2012    3.5529   -6.1864 C.3       1 <0>         0.1246
     20 C20         5.7868    4.1659   -2.8575 C.3       1 <0>         0.0606
     21 C21         6.2418    0.8149    4.8684 C.3       1 <0>         0.1012
     22 C22         8.3797    4.8486   -5.6198 C.3       1 <0>         0.1554
     23 C23         9.1441    6.0926   -6.0861 C.3       1 <0>        -0.0356
     24 C24         6.0158    5.3379    2.0114 C.3       1 <0>        -0.0795
     25 C25         6.7209    6.4716    2.7653 C.3       1 <0>        -0.1203
     26 C26         6.9719    4.2276    1.5544 C.3       1 <0>        -0.0920
     27 C27         5.7742    7.5909    3.1979 C.3       1 <0>         0.1502
     28 C28         6.2906    3.1130    0.7514 C.3       1 <0>         0.0224
     29 N1          6.7058    4.1331   -3.9791 N.am      1 <0>        -0.3553
     30 N2          6.4777    3.0462   -4.8435 N.3       1 <0>        -0.4320
     31 N3          9.3531    3.7833   -5.3380 N.3       1 <0>        -0.9031
     32 N4          4.7531    7.0666    4.0988 N.3       1 <0>        -0.9068
     33 N5          5.9994    1.1372    3.4605 N.am      1 <0>        -0.5526
     34 N6          5.7762    3.5917   -0.5046 N.am      1 <0>        -0.5576
     35 O1          7.8821    6.0807   -3.5877 O.2       1 <0>        -0.6710
     36 O2          4.2060    1.9080    1.0985 O.2       1 <0>        -0.4901
     37 O3          4.9715    3.2326    3.7223 O.2       1 <0>        -0.5902
     38 O4          7.6924    3.2783   -1.7917 O.2       1 <0>        -0.5833
     39 H1         11.7147    5.1800  -10.7084 H         1 <0>         0.1320
     40 H2         12.8515    4.7366   -8.5485 H         1 <0>         0.1324
     41 H3          9.3897    6.0452  -10.7320 H         1 <0>         0.1328
     42 H4         11.6716    5.1554   -6.4159 H         1 <0>         0.1324
     43 H5          8.2009    6.4675   -8.6050 H         1 <0>         0.1434
     44 H6          5.9921   -3.1312    4.5722 H         1 <0>         0.0405
     45 H7          6.3142   -2.3434    6.1143 H         1 <0>         0.0421
     46 H8          8.2433   -2.0364    4.6436 H         1 <0>         0.0362
     47 H9          7.2266   -1.4028    3.3539 H         1 <0>         0.0439
     48 H10         4.5761   -1.2724    3.8406 H         1 <0>         0.0350
     49 H11         4.0283   -1.8278    5.4185 H         1 <0>         0.0428
     50 H12         7.7746   -0.1114    6.0699 H         1 <0>         0.0663
     51 H13         8.3510    0.4514    4.5028 H         1 <0>         0.0466
     52 H14         4.1152    0.6611    5.2801 H         1 <0>         0.0493
     53 H15         5.1528    0.0184    6.5508 H         1 <0>         0.0520
     54 H16         3.9023    3.8458   -3.8340 H         1 <0>         0.0915
     55 H17         4.1709    2.7289   -2.4768 H         1 <0>         0.0601
     56 H18         7.9078    3.8408   -7.4902 H         1 <0>         0.0688
     57 H19         6.9559    5.2827   -7.2061 H         1 <0>         0.0630
     58 H20         5.7303    1.4383   -3.7336 H         1 <0>         0.0807
     59 H21         4.6390    1.9190   -5.0344 H         1 <0>         0.0380
     60 H22         5.2889    4.1652   -6.1941 H         1 <0>         0.0484
     61 H23         6.0298    2.7205   -6.8794 H         1 <0>         0.0697
     62 H24         5.4651    5.1881   -2.6391 H         1 <0>         0.0843
     63 H25         6.3824    1.7748    5.3762 H         1 <0>         0.0831
     64 H26         9.8520    6.3858   -5.3087 H         1 <0>         0.0704
     65 H27         8.4405    6.9195   -6.1990 H         1 <0>         0.0718
     66 H28         5.2579    4.9142    2.6804 H         1 <0>         0.0606
     67 H29         5.4809    5.7546    1.1500 H         1 <0>         0.0458
     68 H30         7.2000    6.0392    3.6534 H         1 <0>         0.0375
     69 H31         7.5258    6.8807    2.1417 H         1 <0>         0.0392
     70 H32         7.4599    3.7926    2.4354 H         1 <0>         0.0606
     71 H33         7.7645    4.6634    0.9347 H         1 <0>         0.0579
     72 H34         5.2908    8.0386    2.3228 H         1 <0>         0.0571
     73 H35         6.3225    8.3806    3.7198 H         1 <0>         0.0503
     74 H36         7.0421    2.3587    0.4881 H         1 <0>         0.0993
     75 H37         9.0331    2.8434   -5.3754 H         1 <0>         0.3700
     76 H38        10.2196    4.0460   -4.9287 H         1 <0>         0.3660
     77 H39         4.0028    7.6695    4.3608 H         1 <0>         0.3465
     78 H40         4.9421    6.2118    4.5770 H         1 <0>         0.3446
     79 H41         6.2907    0.4694    2.7528 H         1 <0>         0.3148
     80 H42         4.8120    3.9176   -0.5391 H         1 <0>         0.3220
@<TRIPOS>BOND
     1    1    2 ar
     2    1    3 ar
     3    2    4 ar
     4    3    5 ar
     5    4    6 ar
     6    5    6 ar
     7    6   23 1
     8    7   22 1
     9    7   29 am
    10    7   35 2
    11    8    9 1
    12    8   28 1
    13    8   36 2
    14    9   33 am
    15    9   37 2
    16   10   20 1
    17   10   34 am
    18   10   38 2
    19   11   12 1
    20   11   13 1
    21   12   14 1
    22   13   15 1
    23   14   21 1
    24   15   21 1
    25   16   18 1
    26   16   20 1
    27   17   19 1
    28   17   22 1
    29   18   30 1
    30   19   30 1
    31   20   29 1
    32   21   33 1
    33   22   23 1
    34   22   31 1
    35   24   25 1
    36   24   26 1
    37   25   27 1
    38   26   28 1
    39   27   32 1
    40   28   34 1
    41   29   30 1
    42    1   39 1
    43    2   40 1
    44    3   41 1
    45    4   42 1
    46    5   43 1
    47   11   44 1
    48   11   45 1
    49   12   46 1
    50   12   47 1
    51   13   48 1
    52   13   49 1
    53   14   50 1
    54   14   51 1
    55   15   52 1
    56   15   53 1
    57   16   54 1
    58   16   55 1
    59   17   56 1
    60   17   57 1
    61   18   58 1
    62   18   59 1
    63   19   60 1
    64   19   61 1
    65   20   62 1
    66   21   63 1
    67   23   64 1
    68   23   65 1
    69   24   66 1
    70   24   67 1
    71   25   68 1
    72   25   69 1
    73   26   70 1
    74   26   71 1
    75   27   72 1
    76   27   73 1
    77   28   74 1
    78   31   75 1
    79   31   76 1
    80   32   77 1
    81   32   78 1
    82   33   79 1
    83   34   80 1
@<TRIPOS>MOLECULE
1a46_ligand_339
   80    83     0     0     0
SMALL
USER_CHARGES

mmff94s_NoEstat = 89.66
@<TRIPOS>ATOM
      1 C1          5.9504   -1.3642  -10.1903 C.ar      1 <0>        -0.1300
      2 C2          6.6765   -1.8241   -9.0918 C.ar      1 <0>        -0.1323
      3 C3          5.5463   -0.0305  -10.2504 C.ar      1 <0>        -0.1309
      4 C4          6.9984   -0.9504   -8.0532 C.ar      1 <0>        -0.1275
      5 C5          5.8681    0.8432   -9.2119 C.ar      1 <0>        -0.1272
      6 C6          6.5921    0.3776   -8.1201 C.ar      1 <0>        -0.0843
      7 C7          6.1974    2.2868   -4.7798 C.2       1 <0>         0.6709
      8 C8          5.2358    2.3798    1.5634 C.2       1 <0>         0.4867
      9 C9          5.3950    2.3039    3.0538 C.2       1 <0>         0.5883
     10 C10         5.7098    2.8119   -1.6475 C.2       1 <0>         0.6572
     11 C11         6.1282   -2.1543    5.0498 C.3       1 <0>        -0.0802
     12 C12         4.8541   -1.3271    4.9000 C.3       1 <0>        -0.0765
     13 C13         7.3391   -1.4500    4.4438 C.3       1 <0>        -0.0774
     14 C14         5.0301    0.0842    5.4622 C.3       1 <0>        -0.0953
     15 C15         7.5094   -0.0385    5.0074 C.3       1 <0>        -0.0906
     16 C16         3.6723    3.8570   -2.6681 C.3       1 <0>        -0.0871
     17 C17         4.4858    1.7161   -6.5463 C.3       1 <0>        -0.0716
     18 C18         2.9535    2.6133   -3.1875 C.3       1 <0>         0.1333
     19 C19         3.4659    2.2898   -5.5476 C.3       1 <0>         0.1246
     20 C20         5.1372    3.5153   -2.8394 C.3       1 <0>         0.0606
     21 C21         6.2418    0.8149    4.8684 C.3       1 <0>         0.1012
     22 C22         5.8481    1.3265   -5.9256 C.3       1 <0>         0.1554
     23 C23         6.9383    1.3175   -7.0029 C.3       1 <0>        -0.0356
     24 C24         6.0158    5.3379    2.0114 C.3       1 <0>        -0.0795
     25 C25         6.7209    6.4716    2.7653 C.3       1 <0>        -0.1203
     26 C26         6.9719    4.2276    1.5544 C.3       1 <0>        -0.0920
     27 C27         5.7742    7.5909    3.1979 C.3       1 <0>         0.1502
     28 C28         6.2906    3.1130    0.7514 C.3       1 <0>         0.0224
     29 N1          5.1345    2.5635   -3.9339 N.am      1 <0>        -0.3553
     30 N2          3.8653    2.0037   -4.1710 N.3       1 <0>        -0.4320
     31 N3          5.7803   -0.0123   -5.3216 N.3       1 <0>        -0.9031
     32 N4          6.5168    8.6391    3.8900 N.3       1 <0>        -0.9068
     33 N5          5.9994    1.1372    3.4605 N.am      1 <0>        -0.5526
     34 N6          5.7762    3.5917   -0.5046 N.am      1 <0>        -0.5576
     35 O1          7.3278    2.7504   -4.6301 O.2       1 <0>        -0.6710
     36 O2          4.2060    1.9080    1.0985 O.2       1 <0>        -0.4901
     37 O3          4.9715    3.2326    3.7223 O.2       1 <0>        -0.5902
     38 O4          6.0670    1.6440   -1.7490 O.2       1 <0>        -0.5833
     39 H1          5.6997   -2.0446  -10.9989 H         1 <0>         0.1320
     40 H2          6.9911   -2.8626   -9.0451 H         1 <0>         0.1324
     41 H3          4.9808    0.3274  -11.1059 H         1 <0>         0.1328
     42 H4          7.5644   -1.3176   -7.2012 H         1 <0>         0.1324
     43 H5          5.5489    1.8806   -9.2673 H         1 <0>         0.1434
     44 H6          6.3142   -2.3436    6.1143 H         1 <0>         0.0405
     45 H7          5.9921   -3.1311    4.5721 H         1 <0>         0.0421
     46 H8          4.5762   -1.2724    3.8405 H         1 <0>         0.0362
     47 H9          4.0283   -1.8278    5.4183 H         1 <0>         0.0439
     48 H10         8.2432   -2.0363    4.6440 H         1 <0>         0.0350
     49 H11         7.2271   -1.4031    3.3539 H         1 <0>         0.0428
     50 H12         4.1152    0.6610    5.2801 H         1 <0>         0.0663
     51 H13         5.1528    0.0185    6.5508 H         1 <0>         0.0466
     52 H14         7.7748   -0.1112    6.0699 H         1 <0>         0.0493
     53 H15         8.3510    0.4513    4.5027 H         1 <0>         0.0520
     54 H16         3.4181    4.7133   -3.3051 H         1 <0>         0.0915
     55 H17         3.3944    4.0971   -1.6373 H         1 <0>         0.0601
     56 H18         4.0497    0.8441   -7.0524 H         1 <0>         0.0688
     57 H19         4.6431    2.4675   -7.3320 H         1 <0>         0.0630
     58 H20         2.8170    1.9026   -2.3635 H         1 <0>         0.0807
     59 H21         1.9588    2.8453   -3.5837 H         1 <0>         0.0380
     60 H22         3.3744    3.3723   -5.7123 H         1 <0>         0.0484
     61 H23         2.4818    1.8533   -5.7569 H         1 <0>         0.0697
     62 H24         5.7646    4.3810   -3.0694 H         1 <0>         0.0843
     63 H25         6.3824    1.7747    5.3764 H         1 <0>         0.0831
     64 H26         7.8868    1.0311   -6.5450 H         1 <0>         0.0704
     65 H27         7.0672    2.3317   -7.3854 H         1 <0>         0.0718
     66 H28         5.2579    4.9142    2.6804 H         1 <0>         0.0606
     67 H29         5.4809    5.7546    1.1500 H         1 <0>         0.0458
     68 H30         7.2000    6.0392    3.6534 H         1 <0>         0.0375
     69 H31         7.5258    6.8807    2.1417 H         1 <0>         0.0392
     70 H32         7.4599    3.7926    2.4354 H         1 <0>         0.0606
     71 H33         7.7645    4.6634    0.9347 H         1 <0>         0.0579
     72 H34         4.9986    7.1962    3.8630 H         1 <0>         0.0571
     73 H35         5.2784    8.0349    2.3297 H         1 <0>         0.0503
     74 H36         7.0421    2.3587    0.4881 H         1 <0>         0.0993
     75 H37         4.9287   -0.2795   -4.8849 H         1 <0>         0.3700
     76 H38         6.6336   -0.5056   -5.1950 H         1 <0>         0.3660
     77 H39         5.9996    9.3711    4.3277 H         1 <0>         0.3465
     78 H40         7.4997    8.7018    3.7315 H         1 <0>         0.3446
     79 H41         6.2907    0.4694    2.7528 H         1 <0>         0.3148
     80 H42         5.4441    4.5531   -0.5557 H         1 <0>         0.3220
@<TRIPOS>BOND
     1    1    2 ar
     2    1    3 ar
     3    2    4 ar
     4    3    5 ar
     5    4    6 ar
     6    5    6 ar
     7    6   23 1
     8    7   22 1
     9    7   29 am
    10    7   35 2
    11    8    9 1
    12    8   28 1
    13    8   36 2
    14    9   33 am
    15    9   37 2
    16   10   20 1
    17   10   34 am
    18   10   38 2
    19   11   12 1
    20   11   13 1
    21   12   14 1
    22   13   15 1
    23   14   21 1
    24   15   21 1
    25   16   18 1
    26   16   20 1
    27   17   19 1
    28   17   22 1
    29   18   30 1
    30   19   30 1
    31   20   29 1
    32   21   33 1
    33   22   23 1
    34   22   31 1
    35   24   25 1
    36   24   26 1
    37   25   27 1
    38   26   28 1
    39   27   32 1
    40   28   34 1
    41   29   30 1
    42    1   39 1
    43    2   40 1
    44    3   41 1
    45    4   42 1
    46    5   43 1
    47   11   44 1
    48   11   45 1
    49   12   46 1
    50   12   47 1
    51   13   48 1
    52   13   49 1
    53   14   50 1
    54   14   51 1
    55   15   52 1
    56   15   53 1
    57   16   54 1
    58   16   55 1
    59   17   56 1
    60   17   57 1
    61   18   58 1
    62   18   59 1
    63   19   60 1
    64   19   61 1
    65   20   62 1
    66   21   63 1
    67   23   64 1
    68   23   65 1
    69   24   66 1
    70   24   67 1
    71   25   68 1
    72   25   69 1
    73   26   70 1
    74   26   71 1
    75   27   72 1
    76   27   73 1
    77   28   74 1
    78   31   75 1
    79   31   76 1
    80   32   77 1
    81   32   78 1
    82   33   79 1
    83   34   80 1
@<TRIPOS>MOLECULE
1a46_ligand_340
   80    83     0     0     0
SMALL
USER_CHARGES

mmff94s_NoEstat = 89.71
@<TRIPOS>ATOM
      1 C1         -4.2961    6.3604   -2.7495 C.ar      1 <0>        -0.1300
      2 C2         -3.8917    5.7888   -1.5431 C.ar      1 <0>        -0.1323
      3 C3         -3.4839    6.2539   -3.8786 C.ar      1 <0>        -0.1309
      4 C4         -2.6752    5.1109   -1.4657 C.ar      1 <0>        -0.1275
      5 C5         -2.2674    5.5759   -3.8012 C.ar      1 <0>        -0.1272
      6 C6         -1.8709    5.0088   -2.5952 C.ar      1 <0>        -0.0843
      7 C7          1.9202    4.4855   -2.0375 C.2       1 <0>         0.6709
      8 C8          5.2358    2.3798    1.5634 C.2       1 <0>         0.4867
      9 C9          4.0737    1.7586    0.8450 C.2       1 <0>         0.5883
     10 C10         4.7954    4.5647   -0.6048 C.2       1 <0>         0.6572
     11 C11        -0.3101    1.8066    3.1204 C.3       1 <0>        -0.0802
     12 C12         0.7521    0.7144    3.0271 C.3       1 <0>        -0.0765
     13 C13         0.1163    3.0793    2.3936 C.3       1 <0>        -0.0774
     14 C14         1.1457    0.4346    1.5761 C.3       1 <0>        -0.0953
     15 C15         0.5110    2.7940    0.9439 C.3       1 <0>        -0.0906
     16 C16         5.1345    6.1376   -2.5274 C.3       1 <0>        -0.0871
     17 C17         0.6797    6.3873   -3.1418 C.3       1 <0>        -0.0716
     18 C18         4.2227    7.2889   -2.1078 C.3       1 <0>         0.1333
     19 C19         2.0578    7.0682   -3.2043 C.3       1 <0>         0.1246
     20 C20         4.4137    4.9104   -2.0113 C.3       1 <0>         0.0606
     21 C21         1.5791    1.6990    0.8223 C.3       1 <0>         0.1012
     22 C22         0.5786    5.2268   -2.1241 C.3       1 <0>         0.1554
     23 C23        -0.5623    4.2796   -2.5120 C.3       1 <0>        -0.0356
     24 C24         7.6485    3.7409    2.8432 C.3       1 <0>        -0.0795
     25 C25         8.2774    4.8743    3.6620 C.3       1 <0>        -0.1203
     26 C26         6.9719    4.2276    1.5544 C.3       1 <0>        -0.0920
     27 C27         8.9284    4.3945    4.9589 C.3       1 <0>         0.1502
     28 C28         6.2906    3.1130    0.7514 C.3       1 <0>         0.0224
     29 N1          3.0235    5.3233   -1.9852 N.am      1 <0>        -0.3553
     30 N2          2.8653    6.7208   -2.0365 N.3       1 <0>        -0.4320
     31 N3          0.3159    5.7420   -0.7724 N.3       1 <0>        -0.9031
     32 N4          9.4866    5.5266    5.6910 N.3       1 <0>        -0.9068
     33 N5          2.8617    2.1823    1.3384 N.am      1 <0>        -0.5526
     34 N6          5.7762    3.5917   -0.5046 N.am      1 <0>        -0.5576
     35 O1          1.9934    3.2573   -2.0040 O.2       1 <0>        -0.6710
     36 O2          5.3022    2.1819    2.7699 O.2       1 <0>        -0.4901
     37 O3          4.3127    0.9617   -0.0474 O.2       1 <0>        -0.5902
     38 O4          4.2448    5.1367    0.3286 O.2       1 <0>        -0.5833
     39 H1         -5.2433    6.8883   -2.8098 H         1 <0>         0.1320
     40 H2         -4.5242    5.8718   -0.6641 H         1 <0>         0.1324
     41 H3         -3.7988    6.6991   -4.8178 H         1 <0>         0.1328
     42 H4         -2.3683    4.6687   -0.5215 H         1 <0>         0.1324
     43 H5         -1.6411    5.4981   -4.6860 H         1 <0>         0.1434
     44 H6         -1.2478    1.4382    2.6861 H         1 <0>         0.0405
     45 H7         -0.5145    2.0336    4.1728 H         1 <0>         0.0421
     46 H8          1.6374    1.0154    3.6002 H         1 <0>         0.0362
     47 H9          0.3743   -0.2054    3.4883 H         1 <0>         0.0439
     48 H10        -0.7038    3.8062    2.4141 H         1 <0>         0.0350
     49 H11         0.9594    3.5381    2.9241 H         1 <0>         0.0428
     50 H12         1.9510   -0.3097    1.5585 H         1 <0>         0.0663
     51 H13         0.2884   -0.0125    1.0569 H         1 <0>         0.0466
     52 H14        -0.3828    2.4825    0.3884 H         1 <0>         0.0493
     53 H15         0.8670    3.7212    0.4787 H         1 <0>         0.0520
     54 H16         5.1868    6.0993   -3.6226 H         1 <0>         0.0915
     55 H17         6.1502    6.2483   -2.1355 H         1 <0>         0.0601
     56 H18        -0.0889    7.1398   -2.9187 H         1 <0>         0.0688
     57 H19         0.4458    6.0134   -4.1479 H         1 <0>         0.0630
     58 H20         4.5037    7.6265   -1.1030 H         1 <0>         0.0807
     59 H21         4.3115    8.1522   -2.7765 H         1 <0>         0.0380
     60 H22         2.5627    6.7687   -4.1331 H         1 <0>         0.0484
     61 H23         1.9139    8.1541   -3.2580 H         1 <0>         0.0697
     62 H24         4.5519    4.0254   -2.6387 H         1 <0>         0.0843
     63 H25         1.7501    1.4622   -0.2331 H         1 <0>         0.0831
     64 H26        -0.6211    3.4755   -1.7762 H         1 <0>         0.0704
     65 H27        -0.3254    3.8127   -3.4698 H         1 <0>         0.0718
     66 H28         8.4445    3.0306    2.5915 H         1 <0>         0.0606
     67 H29         6.9275    3.2007    3.4679 H         1 <0>         0.0458
     68 H30         9.0354    5.3625    3.0356 H         1 <0>         0.0375
     69 H31         7.5157    5.6329    3.8824 H         1 <0>         0.0392
     70 H32         7.7210    4.7221    0.9235 H         1 <0>         0.0606
     71 H33         6.2174    4.9831    1.8035 H         1 <0>         0.0579
     72 H34         9.7251    3.6753    4.7403 H         1 <0>         0.0571
     73 H35         8.1937    3.8977    5.5994 H         1 <0>         0.0503
     74 H36         7.0421    2.3587    0.4881 H         1 <0>         0.0993
     75 H37         0.7364    6.6054   -0.5173 H         1 <0>         0.3700
     76 H38        -0.0926    5.1211   -0.1128 H         1 <0>         0.3660
     77 H39        10.0430    5.3371    6.4969 H         1 <0>         0.3465
     78 H40         9.1331    6.4373    5.4892 H         1 <0>         0.3446
     79 H41         2.8559    2.8605    2.0944 H         1 <0>         0.3148
     80 H42         6.1527    3.1949   -1.3636 H         1 <0>         0.3220
@<TRIPOS>BOND
     1    1    2 ar
     2    1    3 ar
     3    2    4 ar
     4    3    5 ar
     5    4    6 ar
     6    5    6 ar
     7    6   23 1
     8    7   22 1
     9    7   29 am
    10    7   35 2
    11    8    9 1
    12    8   28 1
    13    8   36 2
    14    9   33 am
    15    9   37 2
    16   10   20 1
    17   10   34 am
    18   10   38 2
    19   11   12 1
    20   11   13 1
    21   12   14 1
    22   13   15 1
    23   14   21 1
    24   15   21 1
    25   16   18 1
    26   16   20 1
    27   17   19 1
    28   17   22 1
    29   18   30 1
    30   19   30 1
    31   20   29 1
    32   21   33 1
    33   22   23 1
    34   22   31 1
    35   24   25 1
    36   24   26 1
    37   25   27 1
    38   26   28 1
    39   27   32 1
    40   28   34 1
    41   29   30 1
    42    1   39 1
    43    2   40 1
    44    3   41 1
    45    4   42 1
    46    5   43 1
    47   11   44 1
    48   11   45 1
    49   12   46 1
    50   12   47 1
    51   13   48 1
    52   13   49 1
    53   14   50 1
    54   14   51 1
    55   15   52 1
    56   15   53 1
    57   16   54 1
    58   16   55 1
    59   17   56 1
    60   17   57 1
    61   18   58 1
    62   18   59 1
    63   19   60 1
    64   19   61 1
    65   20   62 1
    66   21   63 1
    67   23   64 1
    68   23   65 1
    69   24   66 1
    70   24   67 1
    71   25   68 1
    72   25   69 1
    73   26   70 1
    74   26   71 1
    75   27   72 1
    76   27   73 1
    77   28   74 1
    78   31   75 1
    79   31   76 1
    80   32   77 1
    81   32   78 1
    82   33   79 1
    83   34   80 1
@<TRIPOS>MOLECULE
1a46_ligand_341
   80    83     0     0     0
SMALL
USER_CHARGES

mmff94s_NoEstat = 89.81
@<TRIPOS>ATOM
      1 C1          9.3778    1.4071  -10.5376 C.ar      1 <0>        -0.1300
      2 C2         10.0902    1.0682   -9.3873 C.ar      1 <0>        -0.1323
      3 C3          8.4252    2.4251  -10.4935 C.ar      1 <0>        -0.1309
      4 C4          9.8499    1.7472   -8.1928 C.ar      1 <0>        -0.1275
      5 C5          8.1849    3.1040   -9.2989 C.ar      1 <0>        -0.1272
      6 C6          8.8988    2.7607   -8.1564 C.ar      1 <0>        -0.0843
      7 C7          7.2708    3.5496   -4.7381 C.2       1 <0>         0.6709
      8 C8          5.2358    2.3798    1.5634 C.2       1 <0>         0.4867
      9 C9          4.0737    1.7586    0.8450 C.2       1 <0>         0.5883
     10 C10         6.2126    3.1256   -1.7338 C.2       1 <0>         0.6572
     11 C11         1.7926   -2.0333    3.0392 C.3       1 <0>        -0.0802
     12 C12         2.8691   -2.0092    1.9574 C.3       1 <0>        -0.0765
     13 C13         1.4148   -0.6275    3.4983 C.3       1 <0>        -0.0774
     14 C14         2.4660   -1.1175    0.7822 C.3       1 <0>        -0.0953
     15 C15         1.0147    0.2608    2.3194 C.3       1 <0>        -0.0906
     16 C16         4.0677    3.4116   -2.9998 C.3       1 <0>        -0.0871
     17 C17         6.2374    2.7118   -6.8841 C.3       1 <0>        -0.0716
     18 C18         4.0600    2.1270   -3.8260 C.3       1 <0>         0.1333
     19 C19         4.9528    2.5709   -6.0494 C.3       1 <0>         0.1246
     20 C20         5.5372    3.7637   -2.9085 C.3       1 <0>         0.0606
     21 C21         2.0813    0.3030    1.2170 C.3       1 <0>         0.1012
     22 C22         7.5393    2.8062   -6.0542 C.3       1 <0>         0.1554
     23 C23         8.6404    3.4910   -6.8715 C.3       1 <0>        -0.0356
     24 C24         8.0800    4.9598    0.7851 C.3       1 <0>        -0.0795
     25 C25         8.7880    6.0338    1.6192 C.3       1 <0>        -0.1203
     26 C26         6.9719    4.2276    1.5544 C.3       1 <0>        -0.0920
     27 C27         9.9095    6.7454    0.8629 C.3       1 <0>         0.1502
     28 C28         6.2906    3.1130    0.7514 C.3       1 <0>         0.0224
     29 N1          6.1017    3.1624   -4.1017 N.am      1 <0>        -0.3553
     30 N2          5.2634    2.1873   -4.6736 N.3       1 <0>        -0.4320
     31 N3          8.0097    1.4670   -5.6708 N.3       1 <0>        -0.9031
     32 N4         10.5470    7.7366    1.7233 N.3       1 <0>        -0.9068
     33 N5          3.2649    1.0281    1.6841 N.am      1 <0>        -0.5526
     34 N6          5.7762    3.5917   -0.5046 N.am      1 <0>        -0.5576
     35 O1          8.0408    4.4006   -4.2931 O.2       1 <0>        -0.6710
     36 O2          5.3022    2.1819    2.7699 O.2       1 <0>        -0.4901
     37 O3          3.9822    1.9394   -0.3582 O.2       1 <0>        -0.5902
     38 O4          7.0689    2.2691   -1.9210 O.2       1 <0>        -0.5833
     39 H1          9.5648    0.8784  -11.4677 H         1 <0>         0.1320
     40 H2         10.8319    0.2756   -9.4218 H         1 <0>         0.1324
     41 H3          7.8704    2.6887  -11.3892 H         1 <0>         0.1328
     42 H4         10.4098    1.4763   -7.3016 H         1 <0>         0.1324
     43 H5          7.4407    3.8957   -9.2740 H         1 <0>         0.1434
     44 H6          0.9001   -2.5398    2.6511 H         1 <0>         0.0405
     45 H7          2.1436   -2.6194    3.8961 H         1 <0>         0.0421
     46 H8          3.8122   -1.6516    2.3880 H         1 <0>         0.0362
     47 H9          3.0515   -3.0286    1.5983 H         1 <0>         0.0439
     48 H10         0.5852   -0.6849    4.2123 H         1 <0>         0.0350
     49 H11         2.2609   -0.1774    4.0315 H         1 <0>         0.0428
     50 H12         3.2898   -1.0805    0.0591 H         1 <0>         0.0663
     51 H13         1.6118   -1.5754    0.2674 H         1 <0>         0.0466
     52 H14         0.0770   -0.1178    1.8931 H         1 <0>         0.0493
     53 H15         0.8108    1.2743    2.6856 H         1 <0>         0.0520
     54 H16         3.5352    4.1976   -3.5496 H         1 <0>         0.0915
     55 H17         3.5853    3.2820   -2.0262 H         1 <0>         0.0601
     56 H18         6.3096    1.8704   -7.5867 H         1 <0>         0.0688
     57 H19         6.1343    3.6107   -7.5070 H         1 <0>         0.0630
     58 H20         4.1583    1.2642   -3.1562 H         1 <0>         0.0807
     59 H21         3.1259    1.9993   -4.3842 H         1 <0>         0.0380
     60 H22         4.4028    3.5219   -6.0765 H         1 <0>         0.0484
     61 H23         4.3072    1.8183   -6.5178 H         1 <0>         0.0697
     62 H24         5.7284    4.8402   -2.8795 H         1 <0>         0.0843
     63 H25         1.7044    0.8657    0.3566 H         1 <0>         0.0831
     64 H26         9.5506    3.5379   -6.2709 H         1 <0>         0.0704
     65 H27         8.3431    4.5219   -7.0731 H         1 <0>         0.0718
     66 H28         7.6494    5.4516   -0.0948 H         1 <0>         0.0606
     67 H29         8.8216    4.2418    0.4157 H         1 <0>         0.0458
     68 H30         8.0356    6.7709    1.9287 H         1 <0>         0.0375
     69 H31         9.1825    5.5824    2.5383 H         1 <0>         0.0392
     70 H32         6.2171    4.9575    1.8728 H         1 <0>         0.0606
     71 H33         7.3929    3.7874    2.4660 H         1 <0>         0.0579
     72 H34         9.5108    7.2416   -0.0285 H         1 <0>         0.0571
     73 H35        10.6706    6.0303    0.5375 H         1 <0>         0.0503
     74 H36         7.0421    2.3587    0.4881 H         1 <0>         0.0993
     75 H37         7.3242    0.7786   -5.4626 H         1 <0>         0.3700
     76 H38         8.9706    1.3637   -5.4396 H         1 <0>         0.3660
     77 H39        11.2163    8.3531    1.3147 H         1 <0>         0.3465
     78 H40        10.4498    7.6340    2.7108 H         1 <0>         0.3446
     79 H41         3.4989    0.9899    2.6717 H         1 <0>         0.3148
     80 H42         5.0545    4.3100   -0.4888 H         1 <0>         0.3220
@<TRIPOS>BOND
     1    1    2 ar
     2    1    3 ar
     3    2    4 ar
     4    3    5 ar
     5    4    6 ar
     6    5    6 ar
     7    6   23 1
     8    7   22 1
     9    7   29 am
    10    7   35 2
    11    8    9 1
    12    8   28 1
    13    8   36 2
    14    9   33 am
    15    9   37 2
    16   10   20 1
    17   10   34 am
    18   10   38 2
    19   11   12 1
    20   11   13 1
    21   12   14 1
    22   13   15 1
    23   14   21 1
    24   15   21 1
    25   16   18 1
    26   16   20 1
    27   17   19 1
    28   17   22 1
    29   18   30 1
    30   19   30 1
    31   20   29 1
    32   21   33 1
    33   22   23 1
    34   22   31 1
    35   24   25 1
    36   24   26 1
    37   25   27 1
    38   26   28 1
    39   27   32 1
    40   28   34 1
    41   29   30 1
    42    1   39 1
    43    2   40 1
    44    3   41 1
    45    4   42 1
    46    5   43 1
    47   11   44 1
    48   11   45 1
    49   12   46 1
    50   12   47 1
    51   13   48 1
    52   13   49 1
    53   14   50 1
    54   14   51 1
    55   15   52 1
    56   15   53 1
    57   16   54 1
    58   16   55 1
    59   17   56 1
    60   17   57 1
    61   18   58 1
    62   18   59 1
    63   19   60 1
    64   19   61 1
    65   20   62 1
    66   21   63 1
    67   23   64 1
    68   23   65 1
    69   24   66 1
    70   24   67 1
    71   25   68 1
    72   25   69 1
    73   26   70 1
    74   26   71 1
    75   27   72 1
    76   27   73 1
    77   28   74 1
    78   31   75 1
    79   31   76 1
    80   32   77 1
    81   32   78 1
    82   33   79 1
    83   34   80 1
@<TRIPOS>MOLECULE
1a46_ligand_342
   80    83     0     0     0
SMALL
USER_CHARGES

mmff94s_NoEstat = 89.97
@<TRIPOS>ATOM
      1 C1         11.0121    9.2104   -7.9325 C.ar      1 <0>        -0.1300
      2 C2         11.5385    8.8832   -6.6829 C.ar      1 <0>        -0.1323
      3 C3          9.6345    9.1559   -8.1449 C.ar      1 <0>        -0.1309
      4 C4         10.6874    8.5015   -5.6458 C.ar      1 <0>        -0.1275
      5 C5          8.7834    8.7742   -7.1078 C.ar      1 <0>        -0.1272
      6 C6          9.3154    8.4495   -5.8650 C.ar      1 <0>        -0.0843
      7 C7          7.2411    6.0968   -3.6024 C.2       1 <0>         0.6709
      8 C8          5.2358    2.3798    1.5634 C.2       1 <0>         0.4867
      9 C9          4.9672    2.8271    2.9706 C.2       1 <0>         0.5883
     10 C10         6.5256    3.6321   -1.6689 C.2       1 <0>         0.6572
     11 C11         7.8776    1.0312    6.5345 C.3       1 <0>        -0.0802
     12 C12         6.4939    0.5923    6.0625 C.3       1 <0>        -0.0765
     13 C13         8.4111    2.2066    5.7198 C.3       1 <0>        -0.0774
     14 C14         5.5091    1.7621    6.0419 C.3       1 <0>        -0.0953
     15 C15         7.4218    3.3727    5.7004 C.3       1 <0>        -0.0906
     16 C16         5.2113    3.0694   -3.7284 C.3       1 <0>        -0.0871
     17 C17         7.6012    6.0599   -6.1012 C.3       1 <0>        -0.0716
     18 C18         6.3446    2.7580   -4.7039 C.3       1 <0>         0.1333
     19 C19         6.8355    4.7264   -6.0536 C.3       1 <0>         0.1246
     20 C20         5.7868    4.1659   -2.8575 C.3       1 <0>         0.0606
     21 C21         6.0219    2.9580    5.2283 C.3       1 <0>         0.1012
     22 C22         8.1773    6.5224   -4.7422 C.3       1 <0>         0.1554
     23 C23         8.4000    8.0389   -4.7494 C.3       1 <0>        -0.0356
     24 C24         8.0800    4.9598    0.7851 C.3       1 <0>        -0.0795
     25 C25         8.7880    6.0338    1.6192 C.3       1 <0>        -0.1203
     26 C26         6.9719    4.2276    1.5544 C.3       1 <0>        -0.0920
     27 C27         7.8523    7.1445    2.0953 C.3       1 <0>         0.1502
     28 C28         6.2906    3.1130    0.7514 C.3       1 <0>         0.0224
     29 N1          6.7674    4.7991   -3.7183 N.am      1 <0>        -0.3553
     30 N2          7.1280    4.0001   -4.8193 N.3       1 <0>        -0.4320
     31 N3          9.4643    5.8648   -4.4722 N.3       1 <0>        -0.9031
     32 N4          8.5978    8.1361    2.8636 N.3       1 <0>        -0.9068
     33 N5          6.0450    2.6279    3.8016 N.am      1 <0>        -0.5526
     34 N6          5.7762    3.5917   -0.5046 N.am      1 <0>        -0.5576
     35 O1          6.9567    6.8465   -2.6685 O.2       1 <0>        -0.6710
     36 O2          4.5176    1.4899    1.1258 O.2       1 <0>        -0.4901
     37 O3          3.8636    3.2805    3.2258 O.2       1 <0>        -0.5902
     38 O4          7.6924    3.2783   -1.7917 O.2       1 <0>        -0.5833
     39 H1         11.6747    9.5075   -8.7400 H         1 <0>         0.1320
     40 H2         12.6111    8.9257   -6.5176 H         1 <0>         0.1324
     41 H3          9.2248    9.4105   -9.1180 H         1 <0>         0.1328
     42 H4         11.1066    8.2484   -4.6756 H         1 <0>         0.1324
     43 H5          7.7115    8.7346   -7.2826 H         1 <0>         0.1434
     44 H6          7.8257    1.3174    7.5923 H         1 <0>         0.0405
     45 H7          8.5750    0.1886    6.4668 H         1 <0>         0.0421
     46 H8          6.5714    0.1549    5.0598 H         1 <0>         0.0362
     47 H9          6.1136   -0.1954    6.7229 H         1 <0>         0.0439
     48 H10         9.3655    2.5423    6.1412 H         1 <0>         0.0350
     49 H11         8.6162    1.8771    4.6941 H         1 <0>         0.0428
     50 H12         4.5485    1.4170    5.6407 H         1 <0>         0.0663
     51 H13         5.3242    2.0871    7.0737 H         1 <0>         0.0466
     52 H14         7.3469    3.7903    6.7125 H         1 <0>         0.0493
     53 H15         7.8163    4.1685    5.0569 H         1 <0>         0.0520
     54 H16         4.3507    3.4578   -4.2870 H         1 <0>         0.0915
     55 H17         4.8908    2.1856   -3.1683 H         1 <0>         0.0601
     56 H18         8.4120    5.9885   -6.8390 H         1 <0>         0.0688
     57 H19         6.9149    6.8257   -6.4876 H         1 <0>         0.0630
     58 H20         6.9926    1.9855   -4.2725 H         1 <0>         0.0807
     59 H21         5.9735    2.3729   -5.6602 H         1 <0>         0.0380
     60 H22         5.7592    4.9288   -6.1435 H         1 <0>         0.0484
     61 H23         7.1185    4.1245   -6.9255 H         1 <0>         0.0697
     62 H24         5.0406    4.8864   -2.5107 H         1 <0>         0.0843
     63 H25         5.3304    3.8008    5.3305 H         1 <0>         0.0831
     64 H26         8.8151    8.3408   -3.7861 H         1 <0>         0.0704
     65 H27         7.4343    8.5386   -4.8464 H         1 <0>         0.0718
     66 H28         7.6494    5.4516   -0.0948 H         1 <0>         0.0606
     67 H29         8.8216    4.2418    0.4157 H         1 <0>         0.0458
     68 H30         9.2384    5.5414    2.4909 H         1 <0>         0.0375
     69 H31         9.6146    6.4624    1.0384 H         1 <0>         0.0392
     70 H32         6.2171    4.9575    1.8728 H         1 <0>         0.0606
     71 H33         7.3929    3.7874    2.4660 H         1 <0>         0.0579
     72 H34         7.0543    6.7273    2.7189 H         1 <0>         0.0571
     73 H35         7.3850    7.6478    1.2437 H         1 <0>         0.0503
     74 H36         7.0421    2.3587    0.4881 H         1 <0>         0.0993
     75 H37         9.5764    4.9261   -4.7778 H         1 <0>         0.3700
     76 H38        10.0811    6.3037   -3.8286 H         1 <0>         0.3660
     77 H39         8.0840    8.8516    3.3317 H         1 <0>         0.3465
     78 H40         9.5851    8.1885    2.7309 H         1 <0>         0.3446
     79 H41         6.8947    2.2345    3.4084 H         1 <0>         0.3148
     80 H42         4.8120    3.9176   -0.5391 H         1 <0>         0.3220
@<TRIPOS>BOND
     1    1    2 ar
     2    1    3 ar
     3    2    4 ar
     4    3    5 ar
     5    4    6 ar
     6    5    6 ar
     7    6   23 1
     8    7   22 1
     9    7   29 am
    10    7   35 2
    11    8    9 1
    12    8   28 1
    13    8   36 2
    14    9   33 am
    15    9   37 2
    16   10   20 1
    17   10   34 am
    18   10   38 2
    19   11   12 1
    20   11   13 1
    21   12   14 1
    22   13   15 1
    23   14   21 1
    24   15   21 1
    25   16   18 1
    26   16   20 1
    27   17   19 1
    28   17   22 1
    29   18   30 1
    30   19   30 1
    31   20   29 1
    32   21   33 1
    33   22   23 1
    34   22   31 1
    35   24   25 1
    36   24   26 1
    37   25   27 1
    38   26   28 1
    39   27   32 1
    40   28   34 1
    41   29   30 1
    42    1   39 1
    43    2   40 1
    44    3   41 1
    45    4   42 1
    46    5   43 1
    47   11   44 1
    48   11   45 1
    49   12   46 1
    50   12   47 1
    51   13   48 1
    52   13   49 1
    53   14   50 1
    54   14   51 1
    55   15   52 1
    56   15   53 1
    57   16   54 1
    58   16   55 1
    59   17   56 1
    60   17   57 1
    61   18   58 1
    62   18   59 1
    63   19   60 1
    64   19   61 1
    65   20   62 1
    66   21   63 1
    67   23   64 1
    68   23   65 1
    69   24   66 1
    70   24   67 1
    71   25   68 1
    72   25   69 1
    73   26   70 1
    74   26   71 1
    75   27   72 1
    76   27   73 1
    77   28   74 1
    78   31   75 1
    79   31   76 1
    80   32   77 1
    81   32   78 1
    82   33   79 1
    83   34   80 1
@<TRIPOS>MOLECULE
1a46_ligand_343
   80    83     0     0     0
SMALL
USER_CHARGES

mmff94s_NoEstat = 90.11
@<TRIPOS>ATOM
      1 C1          9.3427    1.2226  -10.2936 C.ar      1 <0>        -0.1300
      2 C2          9.9666    0.8172   -9.1138 C.ar      1 <0>        -0.1323
      3 C3          8.4336    2.2805  -10.2739 C.ar      1 <0>        -0.1309
      4 C4          9.6814    1.4695   -7.9143 C.ar      1 <0>        -0.1275
      5 C5          8.1485    2.9328   -9.0744 C.ar      1 <0>        -0.1272
      6 C6          8.7742    2.5231   -7.9024 C.ar      1 <0>        -0.0843
      7 C7          6.9710    3.2795   -4.5657 C.2       1 <0>         0.6709
      8 C8          5.2358    2.3798    1.5634 C.2       1 <0>         0.4867
      9 C9          4.0737    1.7586    0.8450 C.2       1 <0>         0.5883
     10 C10         5.7098    2.8119   -1.6475 C.2       1 <0>         0.6572
     11 C11         4.4065   -3.0273   -0.3301 C.3       1 <0>        -0.0802
     12 C12         4.6731   -1.7761   -1.1628 C.3       1 <0>        -0.0765
     13 C13         3.9965   -2.6835    1.0994 C.3       1 <0>        -0.0774
     14 C14         3.4850   -0.8139   -1.1289 C.3       1 <0>        -0.0953
     15 C15         2.8097   -1.7194    1.1279 C.3       1 <0>        -0.0906
     16 C16         3.6624    3.2324   -3.0320 C.3       1 <0>        -0.0871
     17 C17         6.0388    2.5547   -6.7975 C.3       1 <0>        -0.0716
     18 C18         3.6514    1.9752   -3.8994 C.3       1 <0>         0.1333
     19 C19         4.6996    2.4463   -6.0480 C.3       1 <0>         0.1246
     20 C20         5.1372    3.5153   -2.8394 C.3       1 <0>         0.0606
     21 C21         3.0526   -0.4516    0.2982 C.3       1 <0>         0.1012
     22 C22         7.2891    2.5653   -5.8869 C.3       1 <0>         0.1554
     23 C23         8.4675    3.2247   -6.6121 C.3       1 <0>        -0.0356
     24 C24         7.6485    3.7409    2.8432 C.3       1 <0>        -0.0795
     25 C25         8.2774    4.8743    3.6620 C.3       1 <0>        -0.1203
     26 C26         6.9719    4.2276    1.5544 C.3       1 <0>        -0.0920
     27 C27         8.9284    4.3945    4.9589 C.3       1 <0>         0.1502
     28 C28         6.2906    3.1130    0.7514 C.3       1 <0>         0.0224
     29 N1          5.7488    2.9259   -4.0152 N.am      1 <0>        -0.3553
     30 N2          4.9069    2.0073   -4.6693 N.3       1 <0>        -0.4320
     31 N3          7.6768    1.1953   -5.5201 N.3       1 <0>        -0.9031
     32 N4          9.4866    5.5266    5.6910 N.3       1 <0>        -0.9068
     33 N5          4.0688    0.3864    0.9385 N.am      1 <0>        -0.5526
     34 N6          5.7762    3.5917   -0.5046 N.am      1 <0>        -0.5576
     35 O1          7.7474    4.0812   -4.0464 O.2       1 <0>        -0.6710
     36 O2          5.3022    2.1819    2.7699 O.2       1 <0>        -0.4901
     37 O3          3.3003    2.4996    0.2605 O.2       1 <0>        -0.5902
     38 O4          6.0670    1.6440   -1.7490 O.2       1 <0>        -0.5833
     39 H1          9.5646    0.7147  -11.2275 H         1 <0>         0.1320
     40 H2         10.6743   -0.0064   -9.1292 H         1 <0>         0.1324
     41 H3          7.9478    2.5960  -11.1926 H         1 <0>         0.1328
     42 H4         10.1723    1.1467   -7.0000 H         1 <0>         0.1324
     43 H5          7.4388    3.7559   -9.0687 H         1 <0>         0.1434
     44 H6          3.6105   -3.6151   -0.8039 H         1 <0>         0.0405
     45 H7          5.3022   -3.6585   -0.3154 H         1 <0>         0.0421
     46 H8          5.5706   -1.2707   -0.7862 H         1 <0>         0.0362
     47 H9          4.8830   -2.0630   -2.1996 H         1 <0>         0.0439
     48 H10         3.7359   -3.6020    1.6377 H         1 <0>         0.0350
     49 H11         4.8487   -2.2383    1.6270 H         1 <0>         0.0428
     50 H12         3.7413    0.0946   -1.6874 H         1 <0>         0.0663
     51 H13         2.6383   -1.2788   -1.6497 H         1 <0>         0.0466
     52 H14         1.9241   -2.2364    0.7368 H         1 <0>         0.0493
     53 H15         2.5879   -1.4524    2.1683 H         1 <0>         0.0520
     54 H16         3.1996    4.0578   -3.5869 H         1 <0>         0.0915
     55 H17         3.1150    3.0948   -2.0945 H         1 <0>         0.0601
     56 H18         6.1186    1.7328   -7.5220 H         1 <0>         0.0688
     57 H19         6.0134    3.4760   -7.3953 H         1 <0>         0.0630
     58 H20         3.6705    1.0888   -3.2538 H         1 <0>         0.0807
     59 H21         2.7495    1.9066   -4.5175 H         1 <0>         0.0380
     60 H22         4.1937    3.4213   -6.0771 H         1 <0>         0.0484
     61 H23         4.0529    1.7380   -6.5798 H         1 <0>         0.0697
     62 H24         5.3721    4.5807   -2.7630 H         1 <0>         0.0843
     63 H25         2.1402    0.1531    0.2678 H         1 <0>         0.0831
     64 H26         9.3395    3.2124   -5.9558 H         1 <0>         0.0704
     65 H27         8.2279    4.2735   -6.7972 H         1 <0>         0.0718
     66 H28         8.4445    3.0306    2.5915 H         1 <0>         0.0606
     67 H29         6.9275    3.2007    3.4679 H         1 <0>         0.0458
     68 H30         9.0354    5.3625    3.0356 H         1 <0>         0.0375
     69 H31         7.5157    5.6329    3.8824 H         1 <0>         0.0392
     70 H32         7.7210    4.7221    0.9235 H         1 <0>         0.0606
     71 H33         6.2174    4.9831    1.8035 H         1 <0>         0.0579
     72 H34         9.7251    3.6753    4.7403 H         1 <0>         0.0571
     73 H35         8.1937    3.8977    5.5994 H         1 <0>         0.0503
     74 H36         7.0421    2.3587    0.4881 H         1 <0>         0.0993
     75 H37         6.9507    0.5323   -5.3773 H         1 <0>         0.3700
     76 H38         8.6161    1.0420   -5.2343 H         1 <0>         0.3660
     77 H39        10.0430    5.3371    6.4969 H         1 <0>         0.3465
     78 H40         9.1331    6.4373    5.4892 H         1 <0>         0.3446
     79 H41         4.8027   -0.0660    1.4755 H         1 <0>         0.3148
     80 H42         5.4441    4.5531   -0.5557 H         1 <0>         0.3220
@<TRIPOS>BOND
     1    1    2 ar
     2    1    3 ar
     3    2    4 ar
     4    3    5 ar
     5    4    6 ar
     6    5    6 ar
     7    6   23 1
     8    7   22 1
     9    7   29 am
    10    7   35 2
    11    8    9 1
    12    8   28 1
    13    8   36 2
    14    9   33 am
    15    9   37 2
    16   10   20 1
    17   10   34 am
    18   10   38 2
    19   11   12 1
    20   11   13 1
    21   12   14 1
    22   13   15 1
    23   14   21 1
    24   15   21 1
    25   16   18 1
    26   16   20 1
    27   17   19 1
    28   17   22 1
    29   18   30 1
    30   19   30 1
    31   20   29 1
    32   21   33 1
    33   22   23 1
    34   22   31 1
    35   24   25 1
    36   24   26 1
    37   25   27 1
    38   26   28 1
    39   27   32 1
    40   28   34 1
    41   29   30 1
    42    1   39 1
    43    2   40 1
    44    3   41 1
    45    4   42 1
    46    5   43 1
    47   11   44 1
    48   11   45 1
    49   12   46 1
    50   12   47 1
    51   13   48 1
    52   13   49 1
    53   14   50 1
    54   14   51 1
    55   15   52 1
    56   15   53 1
    57   16   54 1
    58   16   55 1
    59   17   56 1
    60   17   57 1
    61   18   58 1
    62   18   59 1
    63   19   60 1
    64   19   61 1
    65   20   62 1
    66   21   63 1
    67   23   64 1
    68   23   65 1
    69   24   66 1
    70   24   67 1
    71   25   68 1
    72   25   69 1
    73   26   70 1
    74   26   71 1
    75   27   72 1
    76   27   73 1
    77   28   74 1
    78   31   75 1
    79   31   76 1
    80   32   77 1
    81   32   78 1
    82   33   79 1
    83   34   80 1
@<TRIPOS>MOLECULE
1a46_ligand_344
   80    83     0     0     0
SMALL
USER_CHARGES

mmff94s_NoEstat = 90.48
@<TRIPOS>ATOM
      1 C1          5.6982   13.0256   -2.9158 C.ar      1 <0>        -0.1300
      2 C2          6.1379   12.4463   -1.7256 C.ar      1 <0>        -0.1323
      3 C3          4.9080   12.2902   -3.7992 C.ar      1 <0>        -0.1309
      4 C4          5.7876   11.1315   -1.4188 C.ar      1 <0>        -0.1275
      5 C5          4.5577   10.9753   -3.4925 C.ar      1 <0>        -0.1272
      6 C6          4.9998   10.4046   -2.3043 C.ar      1 <0>        -0.0843
      7 C7          5.2783    6.5491   -2.1791 C.2       1 <0>         0.6709
      8 C8          5.2358    2.3798    1.5634 C.2       1 <0>         0.4867
      9 C9          4.0737    1.7586    0.8450 C.2       1 <0>         0.5883
     10 C10         6.5256    3.6321   -1.6689 C.2       1 <0>         0.6572
     11 C11         4.9178   -0.1813   -3.6183 C.3       1 <0>        -0.0802
     12 C12         4.3601    1.1806   -3.2131 C.3       1 <0>        -0.0765
     13 C13         5.2798   -1.0327   -2.4042 C.3       1 <0>        -0.0774
     14 C14         3.1836    1.0419   -2.2460 C.3       1 <0>        -0.0953
     15 C15         4.1009   -1.1664   -1.4392 C.3       1 <0>        -0.0906
     16 C16         6.3772    3.6983   -4.1707 C.3       1 <0>        -0.0871
     17 C17         5.8129    8.1649   -4.0442 C.3       1 <0>        -0.0716
     18 C18         7.4333    4.7567   -4.4831 C.3       1 <0>         0.1333
     19 C19         6.3652    6.9275   -4.7727 C.3       1 <0>         0.1246
     20 C20         5.7868    4.1659   -2.8575 C.3       1 <0>         0.0606
     21 C21         3.5216    0.1899   -1.0153 C.3       1 <0>         0.1012
     22 C22         5.6591    7.9981   -2.5141 C.3       1 <0>         0.1554
     23 C23         4.6229    8.9902   -1.9743 C.3       1 <0>        -0.0356
     24 C24         7.6485    3.7409    2.8432 C.3       1 <0>        -0.0795
     25 C25         8.2774    4.8743    3.6620 C.3       1 <0>        -0.1203
     26 C26         6.9719    4.2276    1.5544 C.3       1 <0>        -0.0920
     27 C27         9.3764    5.6254    2.9110 C.3       1 <0>         0.1502
     28 C28         6.2906    3.1130    0.7514 C.3       1 <0>         0.0224
     29 N1          6.0028    5.5999   -2.8834 N.am      1 <0>        -0.3553
     30 N2          6.9706    5.9918   -3.8269 N.3       1 <0>        -0.4320
     31 N3          6.9384    8.2454   -1.8330 N.3       1 <0>        -0.9031
     32 N4          9.9388    6.6729    3.7569 N.3       1 <0>        -0.9068
     33 N5          4.4695    0.8988   -0.1529 N.am      1 <0>        -0.5526
     34 N6          5.7762    3.5917   -0.5046 N.am      1 <0>        -0.5576
     35 O1          4.4149    6.2702   -1.3473 O.2       1 <0>        -0.6710
     36 O2          5.3022    2.1819    2.7699 O.2       1 <0>        -0.4901
     37 O3          2.9489    2.0822    1.1900 O.2       1 <0>        -0.5902
     38 O4          7.6924    3.2783   -1.7917 O.2       1 <0>        -0.5833
     39 H1          5.9710   14.0494   -3.1547 H         1 <0>         0.1320
     40 H2          6.7531   13.0191   -1.0378 H         1 <0>         0.1324
     41 H3          4.5659   12.7413   -4.7260 H         1 <0>         0.1328
     42 H4          6.1348   10.6884   -0.4892 H         1 <0>         0.1324
     43 H5          3.9418   10.4100   -4.1868 H         1 <0>         0.1434
     44 H6          4.1729   -0.7122   -4.2240 H         1 <0>         0.0405
     45 H7          5.8027   -0.0446   -4.2501 H         1 <0>         0.0421
     46 H8          5.1542    1.7772   -2.7482 H         1 <0>         0.0362
     47 H9          4.0371    1.7257   -4.1075 H         1 <0>         0.0439
     48 H10         5.5975   -2.0280   -2.7352 H         1 <0>         0.0350
     49 H11         6.1350   -0.5837   -1.8849 H         1 <0>         0.0428
     50 H12         2.8539    2.0404   -1.9345 H         1 <0>         0.0663
     51 H13         2.3414    0.5806   -2.7774 H         1 <0>         0.0466
     52 H14         3.3114   -1.7547   -1.9241 H         1 <0>         0.0493
     53 H15         4.4214   -1.7321   -0.5559 H         1 <0>         0.0520
     54 H16         5.6043    3.7190   -4.9489 H         1 <0>         0.0915
     55 H17         6.7998    2.6898   -4.1286 H         1 <0>         0.0601
     56 H18         6.4556    9.0301   -4.2569 H         1 <0>         0.0688
     57 H19         4.8364    8.4048   -4.4864 H         1 <0>         0.0630
     58 H20         8.3862    4.4645   -4.0255 H         1 <0>         0.0807
     59 H21         7.6091    4.8610   -5.5594 H         1 <0>         0.0380
     60 H22         5.5493    6.4477   -5.3309 H         1 <0>         0.0484
     61 H23         7.1061    7.2537   -5.5124 H         1 <0>         0.0697
     62 H24         4.7253    3.9276   -2.7453 H         1 <0>         0.0843
     63 H25         2.6216    0.0369   -0.4106 H         1 <0>         0.0831
     64 H26         4.5381    8.8614   -0.8937 H         1 <0>         0.0704
     65 H27         3.6462    8.7482   -2.3975 H         1 <0>         0.0718
     66 H28         8.4445    3.0306    2.5915 H         1 <0>         0.0606
     67 H29         6.9275    3.2007    3.4679 H         1 <0>         0.0458
     68 H30         7.4791    5.5773    3.9337 H         1 <0>         0.0375
     69 H31         8.6737    4.4703    4.6022 H         1 <0>         0.0392
     70 H32         7.7210    4.7221    0.9235 H         1 <0>         0.0606
     71 H33         6.2174    4.9831    1.8035 H         1 <0>         0.0579
     72 H34         8.9729    6.0746    1.9972 H         1 <0>         0.0571
     73 H35        10.1826    4.9443    2.6230 H         1 <0>         0.0503
     74 H36         7.0421    2.3587    0.4881 H         1 <0>         0.0993
     75 H37         7.7703    7.9574   -2.2937 H         1 <0>         0.3700
     76 H38         6.9090    8.4964   -0.8720 H         1 <0>         0.3660
     77 H39        10.5834    7.3137    3.3460 H         1 <0>         0.3465
     78 H40         9.8239    6.5919    4.7445 H         1 <0>         0.3446
     79 H41         5.4635    0.7487   -0.2981 H         1 <0>         0.3148
     80 H42         4.8120    3.9176   -0.5391 H         1 <0>         0.3220
@<TRIPOS>BOND
     1    1    2 ar
     2    1    3 ar
     3    2    4 ar
     4    3    5 ar
     5    4    6 ar
     6    5    6 ar
     7    6   23 1
     8    7   22 1
     9    7   29 am
    10    7   35 2
    11    8    9 1
    12    8   28 1
    13    8   36 2
    14    9   33 am
    15    9   37 2
    16   10   20 1
    17   10   34 am
    18   10   38 2
    19   11   12 1
    20   11   13 1
    21   12   14 1
    22   13   15 1
    23   14   21 1
    24   15   21 1
    25   16   18 1
    26   16   20 1
    27   17   19 1
    28   17   22 1
    29   18   30 1
    30   19   30 1
    31   20   29 1
    32   21   33 1
    33   22   23 1
    34   22   31 1
    35   24   25 1
    36   24   26 1
    37   25   27 1
    38   26   28 1
    39   27   32 1
    40   28   34 1
    41   29   30 1
    42    1   39 1
    43    2   40 1
    44    3   41 1
    45    4   42 1
    46    5   43 1
    47   11   44 1
    48   11   45 1
    49   12   46 1
    50   12   47 1
    51   13   48 1
    52   13   49 1
    53   14   50 1
    54   14   51 1
    55   15   52 1
    56   15   53 1
    57   16   54 1
    58   16   55 1
    59   17   56 1
    60   17   57 1
    61   18   58 1
    62   18   59 1
    63   19   60 1
    64   19   61 1
    65   20   62 1
    66   21   63 1
    67   23   64 1
    68   23   65 1
    69   24   66 1
    70   24   67 1
    71   25   68 1
    72   25   69 1
    73   26   70 1
    74   26   71 1
    75   27   72 1
    76   27   73 1
    77   28   74 1
    78   31   75 1
    79   31   76 1
    80   32   77 1
    81   32   78 1
    82   33   79 1
    83   34   80 1
@<TRIPOS>MOLECULE
1a46_ligand_345
   80    83     0     0     0
SMALL
USER_CHARGES

mmff94s_NoEstat = 90.49
@<TRIPOS>ATOM
      1 C1         11.2165    5.1344   -9.5699 C.ar      1 <0>        -0.1300
      2 C2         11.8039    4.7828   -8.3546 C.ar      1 <0>        -0.1323
      3 C3          9.9328    5.6797   -9.5922 C.ar      1 <0>        -0.1309
      4 C4         11.1077    4.9765   -7.1616 C.ar      1 <0>        -0.1275
      5 C5          9.2366    5.8734   -8.3991 C.ar      1 <0>        -0.1272
      6 C6          9.8285    5.5206   -7.1916 C.ar      1 <0>        -0.0843
      7 C7          7.4784    4.7027   -4.2310 C.2       1 <0>         0.6709
      8 C8          5.2358    2.3798    1.5634 C.2       1 <0>         0.4867
      9 C9          4.9672    2.8271    2.9706 C.2       1 <0>         0.5883
     10 C10         6.2126    3.1256   -1.7338 C.2       1 <0>         0.6572
     11 C11         8.8237    3.6691    5.9396 C.3       1 <0>        -0.0802
     12 C12         8.4143    2.2154    5.7182 C.3       1 <0>        -0.0765
     13 C13         7.9441    4.6352    5.1505 C.3       1 <0>        -0.0774
     14 C14         6.9289    1.9984    6.0102 C.3       1 <0>        -0.0953
     15 C15         6.4599    4.4127    5.4442 C.3       1 <0>        -0.0906
     16 C16         4.3868    2.9365   -3.4414 C.3       1 <0>        -0.0871
     17 C17         7.2608    4.1580   -6.6868 C.3       1 <0>        -0.0716
     18 C18         5.0537    2.0131   -4.4592 C.3       1 <0>         0.1333
     19 C19         6.0339    3.3363   -6.2552 C.3       1 <0>         0.1246
     20 C20         5.5372    3.7637   -2.9085 C.3       1 <0>         0.0606
     21 C21         6.0219    2.9580    5.2283 C.3       1 <0>         0.1012
     22 C22         8.2469    4.4948   -5.5436 C.3       1 <0>         0.1554
     23 C23         9.0796    5.7289   -5.9083 C.3       1 <0>        -0.0356
     24 C24         8.0800    4.9598    0.7851 C.3       1 <0>        -0.0795
     25 C25         8.7880    6.0338    1.6192 C.3       1 <0>        -0.1203
     26 C26         6.9719    4.2276    1.5544 C.3       1 <0>        -0.0920
     27 C27         9.9095    6.7454    0.8629 C.3       1 <0>         0.1502
     28 C28         6.2906    3.1130    0.7514 C.3       1 <0>         0.0224
     29 N1          6.4904    3.7576   -4.0019 N.am      1 <0>        -0.3553
     30 N2          6.2438    2.7368   -4.9387 N.3       1 <0>        -0.4320
     31 N3          9.1632    3.3713   -5.2994 N.3       1 <0>        -0.9031
     32 N4         10.5470    7.7366    1.7233 N.3       1 <0>        -0.9068
     33 N5          6.0450    2.6279    3.8016 N.am      1 <0>        -0.5526
     34 N6          5.7762    3.5917   -0.5046 N.am      1 <0>        -0.5576
     35 O1          7.7368    5.6223   -3.4546 O.2       1 <0>        -0.6710
     36 O2          4.5176    1.4899    1.1258 O.2       1 <0>        -0.4901
     37 O3          3.8636    3.2805    3.2258 O.2       1 <0>        -0.5902
     38 O4          7.0689    2.2691   -1.9210 O.2       1 <0>        -0.5833
     39 H1         11.7586    4.9835  -10.4989 H         1 <0>         0.1320
     40 H2         12.8034    4.3582   -8.3374 H         1 <0>         0.1324
     41 H3          9.4755    5.9533  -10.5385 H         1 <0>         0.1328
     42 H4         11.5733    4.6996   -6.2195 H         1 <0>         0.1324
     43 H5          8.2369    6.2989   -8.4262 H         1 <0>         0.1434
     44 H6          8.7541    3.9064    7.0085 H         1 <0>         0.0405
     45 H7          9.8722    3.8052    5.6513 H         1 <0>         0.0421
     46 H8          8.6349    1.9271    4.6833 H         1 <0>         0.0362
     47 H9          9.0138    1.5629    6.3632 H         1 <0>         0.0439
     48 H10         8.2166    5.6671    5.3998 H         1 <0>         0.0350
     49 H11         8.1330    4.5082    4.0777 H         1 <0>         0.0428
     50 H12         6.6650    0.9589    5.7810 H         1 <0>         0.0663
     51 H13         6.7551    2.1408    7.0844 H         1 <0>         0.0466
     52 H14         6.2591    4.6939    6.4859 H         1 <0>         0.0493
     53 H15         5.8638    5.0834    4.8136 H         1 <0>         0.0520
     54 H16         3.6738    3.5897   -3.9595 H         1 <0>         0.0915
     55 H17         3.8488    2.3812   -2.6670 H         1 <0>         0.0601
     56 H18         7.7933    3.6252   -7.4865 H         1 <0>         0.0688
     57 H19         6.8963    5.0889   -7.1420 H         1 <0>         0.0630
     58 H20         5.3910    1.1000   -3.9542 H         1 <0>         0.0807
     59 H21         4.3651    1.7081   -5.2548 H         1 <0>         0.0380
     60 H22         5.1498    3.9888   -6.2523 H         1 <0>         0.0484
     61 H23         5.8493    2.5563   -7.0035 H         1 <0>         0.0697
     62 H24         5.2534    4.7844   -2.6367 H         1 <0>         0.0843
     63 H25         4.9826    2.8313    5.5492 H         1 <0>         0.0831
     64 H26         9.7736    5.9418   -5.0932 H         1 <0>         0.0704
     65 H27         8.4167    6.5923   -5.9906 H         1 <0>         0.0718
     66 H28         7.6494    5.4516   -0.0948 H         1 <0>         0.0606
     67 H29         8.8216    4.2418    0.4157 H         1 <0>         0.0458
     68 H30         8.0356    6.7709    1.9287 H         1 <0>         0.0375
     69 H31         9.1825    5.5824    2.5383 H         1 <0>         0.0392
     70 H32         6.2171    4.9575    1.8728 H         1 <0>         0.0606
     71 H33         7.3929    3.7874    2.4660 H         1 <0>         0.0579
     72 H34         9.5108    7.2416   -0.0285 H         1 <0>         0.0571
     73 H35        10.6706    6.0303    0.5375 H         1 <0>         0.0503
     74 H36         7.0421    2.3587    0.4881 H         1 <0>         0.0993
     75 H37         8.8040    2.4509   -5.4050 H         1 <0>         0.3700
     76 H38        10.0264    3.5689   -4.8487 H         1 <0>         0.3660
     77 H39        11.2163    8.3531    1.3147 H         1 <0>         0.3465
     78 H40        10.4498    7.6340    2.7108 H         1 <0>         0.3446
     79 H41         6.8947    2.2345    3.4084 H         1 <0>         0.3148
     80 H42         5.0545    4.3100   -0.4888 H         1 <0>         0.3220
@<TRIPOS>BOND
     1    1    2 ar
     2    1    3 ar
     3    2    4 ar
     4    3    5 ar
     5    4    6 ar
     6    5    6 ar
     7    6   23 1
     8    7   22 1
     9    7   29 am
    10    7   35 2
    11    8    9 1
    12    8   28 1
    13    8   36 2
    14    9   33 am
    15    9   37 2
    16   10   20 1
    17   10   34 am
    18   10   38 2
    19   11   12 1
    20   11   13 1
    21   12   14 1
    22   13   15 1
    23   14   21 1
    24   15   21 1
    25   16   18 1
    26   16   20 1
    27   17   19 1
    28   17   22 1
    29   18   30 1
    30   19   30 1
    31   20   29 1
    32   21   33 1
    33   22   23 1
    34   22   31 1
    35   24   25 1
    36   24   26 1
    37   25   27 1
    38   26   28 1
    39   27   32 1
    40   28   34 1
    41   29   30 1
    42    1   39 1
    43    2   40 1
    44    3   41 1
    45    4   42 1
    46    5   43 1
    47   11   44 1
    48   11   45 1
    49   12   46 1
    50   12   47 1
    51   13   48 1
    52   13   49 1
    53   14   50 1
    54   14   51 1
    55   15   52 1
    56   15   53 1
    57   16   54 1
    58   16   55 1
    59   17   56 1
    60   17   57 1
    61   18   58 1
    62   18   59 1
    63   19   60 1
    64   19   61 1
    65   20   62 1
    66   21   63 1
    67   23   64 1
    68   23   65 1
    69   24   66 1
    70   24   67 1
    71   25   68 1
    72   25   69 1
    73   26   70 1
    74   26   71 1
    75   27   72 1
    76   27   73 1
    77   28   74 1
    78   31   75 1
    79   31   76 1
    80   32   77 1
    81   32   78 1
    82   33   79 1
    83   34   80 1
@<TRIPOS>MOLECULE
1a46_ligand_346
   80    83     0     0     0
SMALL
USER_CHARGES

mmff94s_NoEstat = 90.61
@<TRIPOS>ATOM
      1 C1         -6.3098    5.0766  -14.7059 C.ar      1 <0>        -0.1300
      2 C2         -4.9866    5.5178  -14.7011 C.ar      1 <0>        -0.1323
      3 C3         -6.8931    4.6085  -13.5284 C.ar      1 <0>        -0.1309
      4 C4         -4.2467    5.4909  -13.5190 C.ar      1 <0>        -0.1275
      5 C5         -6.1532    4.5816  -12.3463 C.ar      1 <0>        -0.1272
      6 C6         -4.8348    5.0229  -12.3493 C.ar      1 <0>        -0.0843
      7 C7         -2.4853    3.6254   -9.6135 C.2       1 <0>         0.6709
      8 C8          2.7796    3.2097   -6.1637 C.2       1 <0>         0.4867
      9 C9          2.2829    2.0299   -5.3801 C.2       1 <0>         0.5883
     10 C10         0.1051    2.2921   -8.2580 C.2       1 <0>         0.6572
     11 C11        -0.3325   -2.5603   -5.6484 C.3       1 <0>        -0.0802
     12 C12         1.0591   -2.7471   -6.2461 C.3       1 <0>        -0.0765
     13 C13        -0.3360   -1.5014   -4.5494 C.3       1 <0>        -0.0774
     14 C14         1.6421   -1.4243   -6.7402 C.3       1 <0>        -0.0953
     15 C15         0.2458   -0.1771   -5.0410 C.3       1 <0>        -0.0906
     16 C16        -1.6364    0.5270   -7.8871 C.3       1 <0>        -0.0871
     17 C17        -4.3081    2.4860  -10.9382 C.3       1 <0>        -0.0716
     18 C18        -1.8694    0.0615   -9.3231 C.3       1 <0>         0.1333
     19 C19        -3.8118    1.2004  -10.2545 C.3       1 <0>         0.1246
     20 C20        -1.3485    2.0056   -8.0379 C.3       1 <0>         0.0606
     21 C21         1.6479   -0.3676   -5.6301 C.3       1 <0>         0.1012
     22 C22        -3.3015    3.6603  -10.9133 C.3       1 <0>         0.1554
     23 C23        -4.0388    4.9940  -11.0778 C.3       1 <0>        -0.0356
     24 C24         1.5857    6.0302   -6.5865 C.3       1 <0>        -0.0795
     25 C25         1.6811    7.5259   -6.9095 C.3       1 <0>        -0.1203
     26 C26         2.1570    5.1335   -7.6933 C.3       1 <0>        -0.0920
     27 C27         1.0885    8.4192   -5.8200 C.3       1 <0>         0.1502
     28 C28         2.0196    3.6328   -7.4097 C.3       1 <0>         0.0224
     29 N1         -2.0417    2.3600   -9.2617 N.am      1 <0>        -0.3553
     30 N2         -2.3647    1.2416  -10.0526 N.3       1 <0>        -0.4320
     31 N3         -2.3251    3.5312  -12.0049 N.3       1 <0>        -0.9031
     32 N4          1.1980    9.8225   -6.2046 N.3       1 <0>        -0.9068
     33 N5          2.1424    0.9032   -6.1564 N.am      1 <0>        -0.5526
     34 N6          0.6426    3.2153   -7.3763 N.am      1 <0>        -0.5576
     35 O1         -2.2426    4.6401   -8.9604 O.2       1 <0>        -0.6710
     36 O2          3.8302    3.7133   -5.7870 O.2       1 <0>        -0.4901
     37 O3          2.0451    2.1901   -4.1942 O.2       1 <0>        -0.5902
     38 O4          0.7038    1.7190   -9.1607 O.2       1 <0>        -0.5833
     39 H1         -6.8859    5.0974  -15.6263 H         1 <0>         0.1320
     40 H2         -4.5325    5.8822  -15.6180 H         1 <0>         0.1324
     41 H3         -7.9234    4.2648  -13.5323 H         1 <0>         0.1328
     42 H4         -3.2164    5.8366  -13.5249 H         1 <0>         0.1324
     43 H5         -6.6159    4.2152  -11.4338 H         1 <0>         0.1434
     44 H6         -1.0325   -2.2657   -6.4402 H         1 <0>         0.0405
     45 H7         -0.6908   -3.5134   -5.2432 H         1 <0>         0.0421
     46 H8          1.7262   -3.1796   -5.4901 H         1 <0>         0.0362
     47 H9          1.0109   -3.4610   -7.0760 H         1 <0>         0.0439
     48 H10        -1.3599   -1.3440   -4.1921 H         1 <0>         0.0350
     49 H11         0.2494   -1.8612   -3.6942 H         1 <0>         0.0428
     50 H12         2.6621   -1.5869   -7.1089 H         1 <0>         0.0663
     51 H13         1.0566   -1.0650   -7.5967 H         1 <0>         0.0466
     52 H14        -0.4224    0.2566   -5.7965 H         1 <0>         0.0493
     53 H15         0.2820    0.5388   -4.2109 H         1 <0>         0.0520
     54 H16        -2.5585    0.3895   -7.3089 H         1 <0>         0.0915
     55 H17        -0.8326   -0.0295   -7.3954 H         1 <0>         0.0601
     56 H18        -4.5863    2.2623  -11.9771 H         1 <0>         0.0688
     57 H19        -5.2388    2.7911  -10.4408 H         1 <0>         0.0630
     58 H20        -0.9122   -0.2366   -9.7676 H         1 <0>         0.0807
     59 H21        -2.5349   -0.8073   -9.3737 H         1 <0>         0.0380
     60 H22        -4.3377    1.0786   -9.2974 H         1 <0>         0.0484
     61 H23        -4.0848    0.3402  -10.8776 H         1 <0>         0.0697
     62 H24        -1.7000    2.6081   -7.1954 H         1 <0>         0.0843
     63 H25         2.3456   -0.6647   -4.8387 H         1 <0>         0.0831
     64 H26        -3.3094    5.8060  -11.0670 H         1 <0>         0.0704
     65 H27        -4.6920    5.1466  -10.2166 H         1 <0>         0.0718
     66 H28         2.1358    5.8550   -5.6547 H         1 <0>         0.0606
     67 H29         0.5392    5.7688   -6.3906 H         1 <0>         0.0458
     68 H30         2.7419    7.7748   -7.0444 H         1 <0>         0.0375
     69 H31         1.1870    7.7255   -7.8687 H         1 <0>         0.0392
     70 H32         3.2164    5.3787   -7.8393 H         1 <0>         0.0606
     71 H33         1.6466    5.3535   -8.6384 H         1 <0>         0.0579
     72 H34         1.6137    8.2608   -4.8719 H         1 <0>         0.0571
     73 H35         0.0315    8.1861   -5.6617 H         1 <0>         0.0503
     74 H36         2.4714    3.0747   -8.2388 H         1 <0>         0.0993
     75 H37        -2.0308    2.6159  -12.2556 H         1 <0>         0.3700
     76 H38        -1.8535    4.3538  -12.3024 H         1 <0>         0.3660
     77 H39         0.9557   10.5154   -5.5293 H         1 <0>         0.3465
     78 H40         1.3102   10.0373   -7.1723 H         1 <0>         0.3446
     79 H41         2.3934    0.9566   -7.1391 H         1 <0>         0.3148
     80 H42         0.0323    3.6193   -6.6682 H         1 <0>         0.3220
@<TRIPOS>BOND
     1    1    2 ar
     2    1    3 ar
     3    2    4 ar
     4    3    5 ar
     5    4    6 ar
     6    5    6 ar
     7    6   23 1
     8    7   22 1
     9    7   29 am
    10    7   35 2
    11    8    9 1
    12    8   28 1
    13    8   36 2
    14    9   33 am
    15    9   37 2
    16   10   20 1
    17   10   34 am
    18   10   38 2
    19   11   12 1
    20   11   13 1
    21   12   14 1
    22   13   15 1
    23   14   21 1
    24   15   21 1
    25   16   18 1
    26   16   20 1
    27   17   19 1
    28   17   22 1
    29   18   30 1
    30   19   30 1
    31   20   29 1
    32   21   33 1
    33   22   23 1
    34   22   31 1
    35   24   25 1
    36   24   26 1
    37   25   27 1
    38   26   28 1
    39   27   32 1
    40   28   34 1
    41   29   30 1
    42    1   39 1
    43    2   40 1
    44    3   41 1
    45    4   42 1
    46    5   43 1
    47   11   44 1
    48   11   45 1
    49   12   46 1
    50   12   47 1
    51   13   48 1
    52   13   49 1
    53   14   50 1
    54   14   51 1
    55   15   52 1
    56   15   53 1
    57   16   54 1
    58   16   55 1
    59   17   56 1
    60   17   57 1
    61   18   58 1
    62   18   59 1
    63   19   60 1
    64   19   61 1
    65   20   62 1
    66   21   63 1
    67   23   64 1
    68   23   65 1
    69   24   66 1
    70   24   67 1
    71   25   68 1
    72   25   69 1
    73   26   70 1
    74   26   71 1
    75   27   72 1
    76   27   73 1
    77   28   74 1
    78   31   75 1
    79   31   76 1
    80   32   77 1
    81   32   78 1
    82   33   79 1
    83   34   80 1
@<TRIPOS>MOLECULE
1a46_ligand_347
   80    83     0     0     0
SMALL
USER_CHARGES

mmff94s_NoEstat = 90.77
@<TRIPOS>ATOM
      1 C1         -4.2961    6.3604   -2.7495 C.ar      1 <0>        -0.1300
      2 C2         -3.8917    5.7888   -1.5431 C.ar      1 <0>        -0.1323
      3 C3         -3.4839    6.2539   -3.8786 C.ar      1 <0>        -0.1309
      4 C4         -2.6752    5.1109   -1.4657 C.ar      1 <0>        -0.1275
      5 C5         -2.2674    5.5759   -3.8012 C.ar      1 <0>        -0.1272
      6 C6         -1.8709    5.0088   -2.5952 C.ar      1 <0>        -0.0843
      7 C7          1.9202    4.4855   -2.0375 C.2       1 <0>         0.6709
      8 C8          5.2358    2.3798    1.5634 C.2       1 <0>         0.4867
      9 C9          4.9672    2.8271    2.9706 C.2       1 <0>         0.5883
     10 C10         4.7954    4.5647   -0.6048 C.2       1 <0>         0.6572
     11 C11         8.8237    3.6691    5.9396 C.3       1 <0>        -0.0802
     12 C12         8.4143    2.2154    5.7182 C.3       1 <0>        -0.0765
     13 C13         7.9441    4.6352    5.1505 C.3       1 <0>        -0.0774
     14 C14         6.9289    1.9984    6.0102 C.3       1 <0>        -0.0953
     15 C15         6.4599    4.4127    5.4442 C.3       1 <0>        -0.0906
     16 C16         5.1345    6.1376   -2.5274 C.3       1 <0>        -0.0871
     17 C17         0.6797    6.3873   -3.1418 C.3       1 <0>        -0.0716
     18 C18         4.2227    7.2889   -2.1078 C.3       1 <0>         0.1333
     19 C19         2.0578    7.0682   -3.2043 C.3       1 <0>         0.1246
     20 C20         4.4137    4.9104   -2.0113 C.3       1 <0>         0.0606
     21 C21         6.0219    2.9580    5.2283 C.3       1 <0>         0.1012
     22 C22         0.5786    5.2268   -2.1241 C.3       1 <0>         0.1554
     23 C23        -0.5623    4.2796   -2.5120 C.3       1 <0>        -0.0356
     24 C24         8.0800    4.9598    0.7851 C.3       1 <0>        -0.0795
     25 C25         8.7880    6.0338    1.6192 C.3       1 <0>        -0.1203
     26 C26         6.9719    4.2276    1.5544 C.3       1 <0>        -0.0920
     27 C27         7.8523    7.1445    2.0953 C.3       1 <0>         0.1502
     28 C28         6.2906    3.1130    0.7514 C.3       1 <0>         0.0224
     29 N1          3.0235    5.3233   -1.9852 N.am      1 <0>        -0.3553
     30 N2          2.8653    6.7208   -2.0365 N.3       1 <0>        -0.4320
     31 N3          0.3159    5.7420   -0.7724 N.3       1 <0>        -0.9031
     32 N4          8.5978    8.1361    2.8636 N.3       1 <0>        -0.9068
     33 N5          6.0450    2.6279    3.8016 N.am      1 <0>        -0.5526
     34 N6          5.7762    3.5917   -0.5046 N.am      1 <0>        -0.5576
     35 O1          1.9934    3.2573   -2.0040 O.2       1 <0>        -0.6710
     36 O2          4.5176    1.4899    1.1258 O.2       1 <0>        -0.4901
     37 O3          3.8636    3.2805    3.2258 O.2       1 <0>        -0.5902
     38 O4          4.2448    5.1367    0.3286 O.2       1 <0>        -0.5833
     39 H1         -5.2433    6.8883   -2.8098 H         1 <0>         0.1320
     40 H2         -4.5242    5.8718   -0.6641 H         1 <0>         0.1324
     41 H3         -3.7988    6.6991   -4.8178 H         1 <0>         0.1328
     42 H4         -2.3683    4.6687   -0.5215 H         1 <0>         0.1324
     43 H5         -1.6411    5.4981   -4.6860 H         1 <0>         0.1434
     44 H6          8.7541    3.9064    7.0085 H         1 <0>         0.0405
     45 H7          9.8722    3.8052    5.6513 H         1 <0>         0.0421
     46 H8          8.6349    1.9271    4.6833 H         1 <0>         0.0362
     47 H9          9.0138    1.5629    6.3632 H         1 <0>         0.0439
     48 H10         8.2166    5.6671    5.3998 H         1 <0>         0.0350
     49 H11         8.1330    4.5082    4.0777 H         1 <0>         0.0428
     50 H12         6.6650    0.9589    5.7810 H         1 <0>         0.0663
     51 H13         6.7551    2.1408    7.0844 H         1 <0>         0.0466
     52 H14         6.2591    4.6939    6.4859 H         1 <0>         0.0493
     53 H15         5.8638    5.0834    4.8136 H         1 <0>         0.0520
     54 H16         5.1868    6.0993   -3.6226 H         1 <0>         0.0915
     55 H17         6.1502    6.2483   -2.1355 H         1 <0>         0.0601
     56 H18        -0.0889    7.1398   -2.9187 H         1 <0>         0.0688
     57 H19         0.4458    6.0134   -4.1479 H         1 <0>         0.0630
     58 H20         4.5037    7.6265   -1.1030 H         1 <0>         0.0807
     59 H21         4.3115    8.1522   -2.7765 H         1 <0>         0.0380
     60 H22         2.5627    6.7687   -4.1331 H         1 <0>         0.0484
     61 H23         1.9139    8.1541   -3.2580 H         1 <0>         0.0697
     62 H24         4.5519    4.0254   -2.6387 H         1 <0>         0.0843
     63 H25         4.9826    2.8313    5.5492 H         1 <0>         0.0831
     64 H26        -0.6211    3.4755   -1.7762 H         1 <0>         0.0704
     65 H27        -0.3254    3.8127   -3.4698 H         1 <0>         0.0718
     66 H28         7.6494    5.4516   -0.0948 H         1 <0>         0.0606
     67 H29         8.8216    4.2418    0.4157 H         1 <0>         0.0458
     68 H30         9.2384    5.5414    2.4909 H         1 <0>         0.0375
     69 H31         9.6146    6.4624    1.0384 H         1 <0>         0.0392
     70 H32         6.2171    4.9575    1.8728 H         1 <0>         0.0606
     71 H33         7.3929    3.7874    2.4660 H         1 <0>         0.0579
     72 H34         7.0543    6.7273    2.7189 H         1 <0>         0.0571
     73 H35         7.3850    7.6478    1.2437 H         1 <0>         0.0503
     74 H36         7.0421    2.3587    0.4881 H         1 <0>         0.0993
     75 H37         0.7364    6.6054   -0.5173 H         1 <0>         0.3700
     76 H38        -0.0926    5.1211   -0.1128 H         1 <0>         0.3660
     77 H39         8.0840    8.8516    3.3317 H         1 <0>         0.3465
     78 H40         9.5851    8.1885    2.7309 H         1 <0>         0.3446
     79 H41         6.8947    2.2345    3.4084 H         1 <0>         0.3148
     80 H42         6.1527    3.1949   -1.3636 H         1 <0>         0.3220
@<TRIPOS>BOND
     1    1    2 ar
     2    1    3 ar
     3    2    4 ar
     4    3    5 ar
     5    4    6 ar
     6    5    6 ar
     7    6   23 1
     8    7   22 1
     9    7   29 am
    10    7   35 2
    11    8    9 1
    12    8   28 1
    13    8   36 2
    14    9   33 am
    15    9   37 2
    16   10   20 1
    17   10   34 am
    18   10   38 2
    19   11   12 1
    20   11   13 1
    21   12   14 1
    22   13   15 1
    23   14   21 1
    24   15   21 1
    25   16   18 1
    26   16   20 1
    27   17   19 1
    28   17   22 1
    29   18   30 1
    30   19   30 1
    31   20   29 1
    32   21   33 1
    33   22   23 1
    34   22   31 1
    35   24   25 1
    36   24   26 1
    37   25   27 1
    38   26   28 1
    39   27   32 1
    40   28   34 1
    41   29   30 1
    42    1   39 1
    43    2   40 1
    44    3   41 1
    45    4   42 1
    46    5   43 1
    47   11   44 1
    48   11   45 1
    49   12   46 1
    50   12   47 1
    51   13   48 1
    52   13   49 1
    53   14   50 1
    54   14   51 1
    55   15   52 1
    56   15   53 1
    57   16   54 1
    58   16   55 1
    59   17   56 1
    60   17   57 1
    61   18   58 1
    62   18   59 1
    63   19   60 1
    64   19   61 1
    65   20   62 1
    66   21   63 1
    67   23   64 1
    68   23   65 1
    69   24   66 1
    70   24   67 1
    71   25   68 1
    72   25   69 1
    73   26   70 1
    74   26   71 1
    75   27   72 1
    76   27   73 1
    77   28   74 1
    78   31   75 1
    79   31   76 1
    80   32   77 1
    81   32   78 1
    82   33   79 1
    83   34   80 1
@<TRIPOS>MOLECULE
1a46_ligand_348
   80    83     0     0     0
SMALL
USER_CHARGES

mmff94s_NoEstat = 90.98
@<TRIPOS>ATOM
      1 C1         -4.4072   -3.0319  -14.4211 C.ar      1 <0>        -0.1300
      2 C2         -3.1014   -2.5683  -14.5810 C.ar      1 <0>        -0.1323
      3 C3         -5.2666   -2.3997  -13.5224 C.ar      1 <0>        -0.1309
      4 C4         -2.6549   -1.4727  -13.8421 C.ar      1 <0>        -0.1275
      5 C5         -4.8200   -1.3041  -12.7835 C.ar      1 <0>        -0.1272
      6 C6         -3.5171   -0.8478  -12.9482 C.ar      1 <0>        -0.0843
      7 C7         -1.9267    1.0916  -10.0042 C.2       1 <0>         0.6709
      8 C8          2.7796    3.2097   -6.1637 C.2       1 <0>         0.4867
      9 C9          2.2829    2.0299   -5.3801 C.2       1 <0>         0.5883
     10 C10         0.2181    1.9581   -7.7739 C.2       1 <0>         0.6572
     11 C11         0.1500    0.6541   -0.6081 C.3       1 <0>        -0.0802
     12 C12         1.6753    0.6969   -0.6351 C.3       1 <0>        -0.0765
     13 C13        -0.4291    0.3393   -1.9844 C.3       1 <0>        -0.0774
     14 C14         2.1931    1.6659   -1.6967 C.3       1 <0>        -0.0953
     15 C15         0.0859    1.3084   -3.0472 C.3       1 <0>        -0.0906
     16 C16        -1.6423    1.0361   -6.3687 C.3       1 <0>        -0.0871
     17 C17        -3.4475   -0.9240   -9.9997 C.3       1 <0>        -0.0716
     18 C18        -1.5606   -0.4439   -6.7372 C.3       1 <0>         0.1333
     19 C19        -3.1819   -0.9495   -8.4846 C.3       1 <0>         0.1246
     20 C20        -1.2590    1.7411   -7.6524 C.3       1 <0>         0.0606
     21 C21         1.6178    1.3392   -3.0792 C.3       1 <0>         0.1012
     22 C22        -2.4199   -0.1108  -10.8216 C.3       1 <0>         0.1554
     23 C23        -3.0368    0.3307  -12.1535 C.3       1 <0>        -0.0356
     24 C24         1.4445    5.5921   -8.9731 C.3       1 <0>        -0.0795
     25 C25         1.6370    7.0835   -9.2718 C.3       1 <0>        -0.1203
     26 C26         2.1570    5.1335   -7.6933 C.3       1 <0>        -0.0920
     27 C27         0.9502    7.5360  -10.5601 C.3       1 <0>         0.1502
     28 C28         2.0196    3.6328   -7.4097 C.3       1 <0>         0.0224
     29 N1         -1.6352    0.7917   -8.6825 N.am      1 <0>        -0.3553
     30 N2         -1.8196   -0.5121   -8.1858 N.3       1 <0>        -0.4320
     31 N3         -1.2259   -0.9195  -11.1076 N.3       1 <0>        -0.9031
     32 N4          1.1922    8.9569  -10.7874 N.3       1 <0>        -0.9068
     33 N5          2.0747    2.3281   -4.0537 N.am      1 <0>        -0.5526
     34 N6          0.6426    3.2153   -7.3763 N.am      1 <0>        -0.5576
     35 O1         -1.7935    2.2123  -10.4955 O.2       1 <0>        -0.6710
     36 O2          3.8302    3.7133   -5.7870 O.2       1 <0>        -0.4901
     37 O3          2.1422    0.9706   -5.9690 O.2       1 <0>        -0.5902
     38 O4          0.9290    1.0536   -8.1959 O.2       1 <0>        -0.5833
     39 H1         -4.7549   -3.8850  -14.9963 H         1 <0>         0.1320
     40 H2         -2.4324   -3.0606  -15.2808 H         1 <0>         0.1324
     41 H3         -6.2832   -2.7609  -13.3979 H         1 <0>         0.1328
     42 H4         -1.6358   -1.1186  -13.9733 H         1 <0>         0.1324
     43 H5         -5.4966   -0.8180  -12.0857 H         1 <0>         0.1434
     44 H6         -0.1850   -0.0990    0.1140 H         1 <0>         0.0405
     45 H7         -0.2352    1.6217   -0.2635 H         1 <0>         0.0421
     46 H8          2.0532    0.9932    0.3499 H         1 <0>         0.0362
     47 H9          2.0655   -0.3079   -0.8384 H         1 <0>         0.0439
     48 H10        -0.1631   -0.6866   -2.2674 H         1 <0>         0.0350
     49 H11        -1.5232    0.3856   -1.9430 H         1 <0>         0.0428
     50 H12         1.9278    2.6930   -1.4130 H         1 <0>         0.0663
     51 H13         3.2887    1.6263   -1.7280 H         1 <0>         0.0466
     52 H14        -0.3034    1.0168   -4.0303 H         1 <0>         0.0493
     53 H15        -0.3055    2.3140   -2.8440 H         1 <0>         0.0520
     54 H16        -2.6779    1.2865   -6.1074 H         1 <0>         0.0915
     55 H17        -0.9998    1.2887   -5.5196 H         1 <0>         0.0601
     56 H18        -3.4897   -1.9539  -10.3797 H         1 <0>         0.0688
     57 H19        -4.4523   -0.5086  -10.1558 H         1 <0>         0.0630
     58 H20        -0.5419   -0.8072   -6.5560 H         1 <0>         0.0807
     59 H21        -2.2364   -1.0589   -6.1327 H         1 <0>         0.0380
     60 H22        -3.9187   -0.3080   -7.9817 H         1 <0>         0.0484
     61 H23        -3.3442   -1.9688   -8.1140 H         1 <0>         0.0697
     62 H24        -1.7661    2.6997   -7.7936 H         1 <0>         0.0843
     63 H25         2.0013    0.3709   -3.4211 H         1 <0>         0.0831
     64 H26        -2.2923    0.8934  -12.7197 H         1 <0>         0.0704
     65 H27        -3.8625    1.0157  -11.9521 H         1 <0>         0.0718
     66 H28         0.3683    5.4079   -8.8774 H         1 <0>         0.0606
     67 H29         1.7918    5.0040   -9.8306 H         1 <0>         0.0458
     68 H30         1.2300    7.6523   -8.4256 H         1 <0>         0.0375
     69 H31         2.7093    7.3123   -9.3176 H         1 <0>         0.0392
     70 H32         1.7604    5.7005   -6.8419 H         1 <0>         0.0606
     71 H33         3.2243    5.3739   -7.7660 H         1 <0>         0.0579
     72 H34        -0.1287    7.3572  -10.4981 H         1 <0>         0.0571
     73 H35         1.3345    6.9786  -11.4193 H         1 <0>         0.0503
     74 H36         2.4714    3.0747   -8.2388 H         1 <0>         0.0993
     75 H37        -0.9249   -1.5612  -10.4112 H         1 <0>         0.3700
     76 H38        -0.6609   -0.6518  -11.8799 H         1 <0>         0.3660
     77 H39         0.7014    9.4044  -11.5317 H         1 <0>         0.3465
     78 H40         1.9755    9.3785  -10.3359 H         1 <0>         0.3446
     79 H41         2.2460    3.2779   -3.7372 H         1 <0>         0.3148
     80 H42        -0.0552    3.8781   -7.0434 H         1 <0>         0.3220
@<TRIPOS>BOND
     1    1    2 ar
     2    1    3 ar
     3    2    4 ar
     4    3    5 ar
     5    4    6 ar
     6    5    6 ar
     7    6   23 1
     8    7   22 1
     9    7   29 am
    10    7   35 2
    11    8    9 1
    12    8   28 1
    13    8   36 2
    14    9   33 am
    15    9   37 2
    16   10   20 1
    17   10   34 am
    18   10   38 2
    19   11   12 1
    20   11   13 1
    21   12   14 1
    22   13   15 1
    23   14   21 1
    24   15   21 1
    25   16   18 1
    26   16   20 1
    27   17   19 1
    28   17   22 1
    29   18   30 1
    30   19   30 1
    31   20   29 1
    32   21   33 1
    33   22   23 1
    34   22   31 1
    35   24   25 1
    36   24   26 1
    37   25   27 1
    38   26   28 1
    39   27   32 1
    40   28   34 1
    41   29   30 1
    42    1   39 1
    43    2   40 1
    44    3   41 1
    45    4   42 1
    46    5   43 1
    47   11   44 1
    48   11   45 1
    49   12   46 1
    50   12   47 1
    51   13   48 1
    52   13   49 1
    53   14   50 1
    54   14   51 1
    55   15   52 1
    56   15   53 1
    57   16   54 1
    58   16   55 1
    59   17   56 1
    60   17   57 1
    61   18   58 1
    62   18   59 1
    63   19   60 1
    64   19   61 1
    65   20   62 1
    66   21   63 1
    67   23   64 1
    68   23   65 1
    69   24   66 1
    70   24   67 1
    71   25   68 1
    72   25   69 1
    73   26   70 1
    74   26   71 1
    75   27   72 1
    76   27   73 1
    77   28   74 1
    78   31   75 1
    79   31   76 1
    80   32   77 1
    81   32   78 1
    82   33   79 1
    83   34   80 1
@<TRIPOS>MOLECULE
1a46_ligand_349
   80    83     0     0     0
SMALL
USER_CHARGES

mmff94s_NoEstat = 91.01
@<TRIPOS>ATOM
      1 C1          9.3778    1.4071  -10.5376 C.ar      1 <0>        -0.1300
      2 C2         10.0902    1.0682   -9.3873 C.ar      1 <0>        -0.1323
      3 C3          8.4252    2.4251  -10.4935 C.ar      1 <0>        -0.1309
      4 C4          9.8499    1.7472   -8.1928 C.ar      1 <0>        -0.1275
      5 C5          8.1849    3.1040   -9.2989 C.ar      1 <0>        -0.1272
      6 C6          8.8988    2.7607   -8.1564 C.ar      1 <0>        -0.0843
      7 C7          7.2708    3.5496   -4.7381 C.2       1 <0>         0.6709
      8 C8          5.2358    2.3798    1.5634 C.2       1 <0>         0.4867
      9 C9          4.9672    2.8271    2.9706 C.2       1 <0>         0.5883
     10 C10         6.2126    3.1256   -1.7338 C.2       1 <0>         0.6572
     11 C11         8.8237    3.6691    5.9396 C.3       1 <0>        -0.0802
     12 C12         8.4143    2.2154    5.7182 C.3       1 <0>        -0.0765
     13 C13         7.9441    4.6352    5.1505 C.3       1 <0>        -0.0774
     14 C14         6.9289    1.9984    6.0102 C.3       1 <0>        -0.0953
     15 C15         6.4599    4.4127    5.4442 C.3       1 <0>        -0.0906
     16 C16         4.0677    3.4116   -2.9998 C.3       1 <0>        -0.0871
     17 C17         6.2374    2.7118   -6.8841 C.3       1 <0>        -0.0716
     18 C18         4.0600    2.1270   -3.8260 C.3       1 <0>         0.1333
     19 C19         4.9528    2.5709   -6.0494 C.3       1 <0>         0.1246
     20 C20         5.5372    3.7637   -2.9085 C.3       1 <0>         0.0606
     21 C21         6.0219    2.9580    5.2283 C.3       1 <0>         0.1012
     22 C22         7.5393    2.8062   -6.0542 C.3       1 <0>         0.1554
     23 C23         8.6404    3.4910   -6.8715 C.3       1 <0>        -0.0356
     24 C24         8.0800    4.9598    0.7851 C.3       1 <0>        -0.0795
     25 C25         8.7880    6.0338    1.6192 C.3       1 <0>        -0.1203
     26 C26         6.9719    4.2276    1.5544 C.3       1 <0>        -0.0920
     27 C27         7.8523    7.1445    2.0953 C.3       1 <0>         0.1502
     28 C28         6.2906    3.1130    0.7514 C.3       1 <0>         0.0224
     29 N1          6.1017    3.1624   -4.1017 N.am      1 <0>        -0.3553
     30 N2          5.2634    2.1873   -4.6736 N.3       1 <0>        -0.4320
     31 N3          8.0097    1.4670   -5.6708 N.3       1 <0>        -0.9031
     32 N4          8.5978    8.1361    2.8636 N.3       1 <0>        -0.9068
     33 N5          6.0450    2.6279    3.8016 N.am      1 <0>        -0.5526
     34 N6          5.7762    3.5917   -0.5046 N.am      1 <0>        -0.5576
     35 O1          8.0408    4.4006   -4.2931 O.2       1 <0>        -0.6710
     36 O2          4.5176    1.4899    1.1258 O.2       1 <0>        -0.4901
     37 O3          3.8636    3.2805    3.2258 O.2       1 <0>        -0.5902
     38 O4          7.0689    2.2691   -1.9210 O.2       1 <0>        -0.5833
     39 H1          9.5648    0.8784  -11.4677 H         1 <0>         0.1320
     40 H2         10.8319    0.2756   -9.4218 H         1 <0>         0.1324
     41 H3          7.8704    2.6887  -11.3892 H         1 <0>         0.1328
     42 H4         10.4098    1.4763   -7.3016 H         1 <0>         0.1324
     43 H5          7.4407    3.8957   -9.2740 H         1 <0>         0.1434
     44 H6          8.7541    3.9064    7.0085 H         1 <0>         0.0405
     45 H7          9.8722    3.8052    5.6513 H         1 <0>         0.0421
     46 H8          8.6349    1.9271    4.6833 H         1 <0>         0.0362
     47 H9          9.0138    1.5629    6.3632 H         1 <0>         0.0439
     48 H10         8.2166    5.6671    5.3998 H         1 <0>         0.0350
     49 H11         8.1330    4.5082    4.0777 H         1 <0>         0.0428
     50 H12         6.6650    0.9589    5.7810 H         1 <0>         0.0663
     51 H13         6.7551    2.1408    7.0844 H         1 <0>         0.0466
     52 H14         6.2591    4.6939    6.4859 H         1 <0>         0.0493
     53 H15         5.8638    5.0834    4.8136 H         1 <0>         0.0520
     54 H16         3.5352    4.1976   -3.5496 H         1 <0>         0.0915
     55 H17         3.5853    3.2820   -2.0262 H         1 <0>         0.0601
     56 H18         6.3096    1.8704   -7.5867 H         1 <0>         0.0688
     57 H19         6.1343    3.6107   -7.5070 H         1 <0>         0.0630
     58 H20         4.1583    1.2642   -3.1562 H         1 <0>         0.0807
     59 H21         3.1259    1.9993   -4.3842 H         1 <0>         0.0380
     60 H22         4.4028    3.5219   -6.0765 H         1 <0>         0.0484
     61 H23         4.3072    1.8183   -6.5178 H         1 <0>         0.0697
     62 H24         5.7284    4.8402   -2.8795 H         1 <0>         0.0843
     63 H25         4.9826    2.8313    5.5492 H         1 <0>         0.0831
     64 H26         9.5506    3.5379   -6.2709 H         1 <0>         0.0704
     65 H27         8.3431    4.5219   -7.0731 H         1 <0>         0.0718
     66 H28         7.6494    5.4516   -0.0948 H         1 <0>         0.0606
     67 H29         8.8216    4.2418    0.4157 H         1 <0>         0.0458
     68 H30         9.2384    5.5414    2.4909 H         1 <0>         0.0375
     69 H31         9.6146    6.4624    1.0384 H         1 <0>         0.0392
     70 H32         6.2171    4.9575    1.8728 H         1 <0>         0.0606
     71 H33         7.3929    3.7874    2.4660 H         1 <0>         0.0579
     72 H34         7.0543    6.7273    2.7189 H         1 <0>         0.0571
     73 H35         7.3850    7.6478    1.2437 H         1 <0>         0.0503
     74 H36         7.0421    2.3587    0.4881 H         1 <0>         0.0993
     75 H37         7.3242    0.7786   -5.4626 H         1 <0>         0.3700
     76 H38         8.9706    1.3637   -5.4396 H         1 <0>         0.3660
     77 H39         8.0840    8.8516    3.3317 H         1 <0>         0.3465
     78 H40         9.5851    8.1885    2.7309 H         1 <0>         0.3446
     79 H41         6.8947    2.2345    3.4084 H         1 <0>         0.3148
     80 H42         5.0545    4.3100   -0.4888 H         1 <0>         0.3220
@<TRIPOS>BOND
     1    1    2 ar
     2    1    3 ar
     3    2    4 ar
     4    3    5 ar
     5    4    6 ar
     6    5    6 ar
     7    6   23 1
     8    7   22 1
     9    7   29 am
    10    7   35 2
    11    8    9 1
    12    8   28 1
    13    8   36 2
    14    9   33 am
    15    9   37 2
    16   10   20 1
    17   10   34 am
    18   10   38 2
    19   11   12 1
    20   11   13 1
    21   12   14 1
    22   13   15 1
    23   14   21 1
    24   15   21 1
    25   16   18 1
    26   16   20 1
    27   17   19 1
    28   17   22 1
    29   18   30 1
    30   19   30 1
    31   20   29 1
    32   21   33 1
    33   22   23 1
    34   22   31 1
    35   24   25 1
    36   24   26 1
    37   25   27 1
    38   26   28 1
    39   27   32 1
    40   28   34 1
    41   29   30 1
    42    1   39 1
    43    2   40 1
    44    3   41 1
    45    4   42 1
    46    5   43 1
    47   11   44 1
    48   11   45 1
    49   12   46 1
    50   12   47 1
    51   13   48 1
    52   13   49 1
    53   14   50 1
    54   14   51 1
    55   15   52 1
    56   15   53 1
    57   16   54 1
    58   16   55 1
    59   17   56 1
    60   17   57 1
    61   18   58 1
    62   18   59 1
    63   19   60 1
    64   19   61 1
    65   20   62 1
    66   21   63 1
    67   23   64 1
    68   23   65 1
    69   24   66 1
    70   24   67 1
    71   25   68 1
    72   25   69 1
    73   26   70 1
    74   26   71 1
    75   27   72 1
    76   27   73 1
    77   28   74 1
    78   31   75 1
    79   31   76 1
    80   32   77 1
    81   32   78 1
    82   33   79 1
    83   34   80 1
@<TRIPOS>MOLECULE
1a46_ligand_350
   80    83     0     0     0
SMALL
USER_CHARGES

mmff94s_NoEstat = 91.03
@<TRIPOS>ATOM
      1 C1         -3.7305   -5.9204  -11.3537 C.ar      1 <0>        -0.1300
      2 C2         -2.4262   -5.5183  -11.6410 C.ar      1 <0>        -0.1323
      3 C3         -4.6750   -4.9808  -10.9404 C.ar      1 <0>        -0.1309
      4 C4         -2.0662   -4.1766  -11.5149 C.ar      1 <0>        -0.1275
      5 C5         -4.3150   -3.6391  -10.8142 C.ar      1 <0>        -0.1272
      6 C6         -3.0129   -3.2458  -11.1023 C.ar      1 <0>        -0.0843
      7 C7         -1.7147   -0.0189   -9.4111 C.2       1 <0>         0.6709
      8 C8          2.7796    3.2097   -6.1637 C.2       1 <0>         0.4867
      9 C9          2.2829    2.0299   -5.3801 C.2       1 <0>         0.5883
     10 C10         0.2181    1.9581   -7.7739 C.2       1 <0>         0.6572
     11 C11        -0.0951    0.7326   -0.7029 C.3       1 <0>        -0.0802
     12 C12        -1.0596    1.0010   -1.8547 C.3       1 <0>        -0.0765
     13 C13         1.2544    0.2267   -1.2045 C.3       1 <0>        -0.0774
     14 C14        -0.4535    1.9500   -2.8873 C.3       1 <0>        -0.0953
     15 C15         1.8633    1.1742   -2.2367 C.3       1 <0>        -0.0906
     16 C16        -1.7326    1.7367   -6.2145 C.3       1 <0>        -0.0871
     17 C17        -3.1871   -1.8587   -8.5042 C.3       1 <0>        -0.0716
     18 C18        -1.5889    0.2745   -5.7969 C.3       1 <0>         0.1333
     19 C19        -3.0480   -1.1203   -7.1617 C.3       1 <0>         0.1246
     20 C20        -1.2590    1.7411   -7.6524 C.3       1 <0>         0.0606
     21 C21         0.8958    1.4320   -3.3972 C.3       1 <0>         0.1012
     22 C22        -2.1125   -1.4947   -9.5555 C.3       1 <0>         0.1554
     23 C23        -2.6257   -1.8026  -10.9666 C.3       1 <0>        -0.0356
     24 C24         3.6080    5.6033   -7.8654 C.3       1 <0>        -0.0795
     25 C25         3.7321    7.1143   -8.0937 C.3       1 <0>        -0.1203
     26 C26         2.1570    5.1335   -7.6933 C.3       1 <0>        -0.0920
     27 C27         5.1782    7.5875   -8.2387 C.3       1 <0>         0.1502
     28 C28         2.0196    3.6328   -7.4097 C.3       1 <0>         0.0224
     29 N1         -1.5278    0.3875   -8.0990 N.am      1 <0>        -0.3553
     30 N2         -1.7250   -0.5121   -7.0349 N.3       1 <0>        -0.4320
     31 N3         -0.8818   -2.2667   -9.3297 N.3       1 <0>        -0.9031
     32 N4          5.2178    9.0330   -8.4337 N.3       1 <0>        -0.9068
     33 N5          1.4800    2.3978   -4.3257 N.am      1 <0>        -0.5526
     34 N6          0.6426    3.2153   -7.3763 N.am      1 <0>        -0.5576
     35 O1         -1.5651    0.7213  -10.3831 O.2       1 <0>        -0.6710
     36 O2          3.8302    3.7133   -5.7870 O.2       1 <0>        -0.4901
     37 O3          2.6437    0.9181   -5.7301 O.2       1 <0>        -0.5902
     38 O4          0.9290    1.0536   -8.1959 O.2       1 <0>        -0.5833
     39 H1         -4.0108   -6.9651  -11.4519 H         1 <0>         0.1320
     40 H2         -1.6909   -6.2500  -11.9629 H         1 <0>         0.1324
     41 H3         -5.6906   -5.2940  -10.7166 H         1 <0>         0.1328
     42 H4         -1.0476   -3.8726  -11.7408 H         1 <0>         0.1324
     43 H5         -5.0575   -2.9141  -10.4915 H         1 <0>         0.1434
     44 H6          0.0525    1.6559   -0.1288 H         1 <0>         0.0405
     45 H7         -0.5335   -0.0027   -0.0187 H         1 <0>         0.0421
     46 H8         -1.3211    0.0528   -2.3405 H         1 <0>         0.0362
     47 H9         -1.9903    1.4276   -1.4643 H         1 <0>         0.0439
     48 H10         1.9424    0.1112   -0.3593 H         1 <0>         0.0350
     49 H11         1.1281   -0.7669   -1.6521 H         1 <0>         0.0428
     50 H12        -1.1492    2.0737   -3.7259 H         1 <0>         0.0663
     51 H13        -0.3282    2.9445   -2.4392 H         1 <0>         0.0466
     52 H14         2.1264    2.1227   -1.7504 H         1 <0>         0.0493
     53 H15         2.8004    0.7499   -2.6170 H         1 <0>         0.0520
     54 H16        -2.7915    2.0208   -6.1758 H         1 <0>         0.0915
     55 H17        -1.1685    2.4118   -5.5637 H         1 <0>         0.0601
     56 H18        -3.1756   -2.9428   -8.3269 H         1 <0>         0.0688
     57 H19        -4.1842   -1.6345   -8.9071 H         1 <0>         0.0630
     58 H20        -0.5812    0.1087   -5.3971 H         1 <0>         0.0807
     59 H21        -2.2993   -0.0031   -5.0104 H         1 <0>         0.0380
     60 H22        -3.8377   -0.3598   -7.0886 H         1 <0>         0.0484
     61 H23        -3.2188   -1.8335   -6.3463 H         1 <0>         0.0697
     62 H24        -1.7729    2.4744   -8.2803 H         1 <0>         0.0843
     63 H25         0.7468    0.5083   -3.9681 H         1 <0>         0.0831
     64 H26        -1.8489   -1.5475  -11.6898 H         1 <0>         0.0704
     65 H27        -3.4798   -1.1578  -11.1818 H         1 <0>         0.0718
     66 H28         4.0550    5.0981   -8.7294 H         1 <0>         0.0606
     67 H29         4.2035    5.3200   -6.9896 H         1 <0>         0.0458
     68 H30         3.1762    7.3642   -9.0068 H         1 <0>         0.0375
     69 H31         3.2423    7.6502   -7.2709 H         1 <0>         0.0392
     70 H32         1.5916    5.3838   -8.5996 H         1 <0>         0.0606
     71 H33         1.6928    5.6841   -6.8667 H         1 <0>         0.0579
     72 H34         5.6557    7.0931   -9.0916 H         1 <0>         0.0571
     73 H35         5.7562    7.3441   -7.3424 H         1 <0>         0.0503
     74 H36         2.4714    3.0747   -8.2388 H         1 <0>         0.0993
     75 H37        -0.6260   -2.4640   -8.3900 H         1 <0>         0.3700
     76 H38        -0.2603   -2.3800  -10.0968 H         1 <0>         0.3660
     77 H39         6.0938    9.4532   -8.6597 H         1 <0>         0.3465
     78 H40         4.4297    9.5689   -8.1390 H         1 <0>         0.3446
     79 H41         1.2844    3.3846   -4.1861 H         1 <0>         0.3148
     80 H42        -0.0552    3.8781   -7.0434 H         1 <0>         0.3220
@<TRIPOS>BOND
     1    1    2 ar
     2    1    3 ar
     3    2    4 ar
     4    3    5 ar
     5    4    6 ar
     6    5    6 ar
     7    6   23 1
     8    7   22 1
     9    7   29 am
    10    7   35 2
    11    8    9 1
    12    8   28 1
    13    8   36 2
    14    9   33 am
    15    9   37 2
    16   10   20 1
    17   10   34 am
    18   10   38 2
    19   11   12 1
    20   11   13 1
    21   12   14 1
    22   13   15 1
    23   14   21 1
    24   15   21 1
    25   16   18 1
    26   16   20 1
    27   17   19 1
    28   17   22 1
    29   18   30 1
    30   19   30 1
    31   20   29 1
    32   21   33 1
    33   22   23 1
    34   22   31 1
    35   24   25 1
    36   24   26 1
    37   25   27 1
    38   26   28 1
    39   27   32 1
    40   28   34 1
    41   29   30 1
    42    1   39 1
    43    2   40 1
    44    3   41 1
    45    4   42 1
    46    5   43 1
    47   11   44 1
    48   11   45 1
    49   12   46 1
    50   12   47 1
    51   13   48 1
    52   13   49 1
    53   14   50 1
    54   14   51 1
    55   15   52 1
    56   15   53 1
    57   16   54 1
    58   16   55 1
    59   17   56 1
    60   17   57 1
    61   18   58 1
    62   18   59 1
    63   19   60 1
    64   19   61 1
    65   20   62 1
    66   21   63 1
    67   23   64 1
    68   23   65 1
    69   24   66 1
    70   24   67 1
    71   25   68 1
    72   25   69 1
    73   26   70 1
    74   26   71 1
    75   27   72 1
    76   27   73 1
    77   28   74 1
    78   31   75 1
    79   31   76 1
    80   32   77 1
    81   32   78 1
    82   33   79 1
    83   34   80 1
@<TRIPOS>MOLECULE
1a46_ligand_351
   80    83     0     0     0
SMALL
USER_CHARGES

mmff94s_NoEstat = 91.29
@<TRIPOS>ATOM
      1 C1         11.2307    8.4980   -6.9074 C.ar      1 <0>        -0.1300
      2 C2         11.6037    8.0134   -5.6538 C.ar      1 <0>        -0.1323
      3 C3          9.8807    8.5885   -7.2468 C.ar      1 <0>        -0.1309
      4 C4         10.6268    7.6193   -4.7395 C.ar      1 <0>        -0.1275
      5 C5          8.9038    8.1943   -6.3325 C.ar      1 <0>        -0.1272
      6 C6          9.2832    7.7123   -5.0848 C.ar      1 <0>        -0.0843
      7 C7          6.8112    5.3648   -3.2584 C.2       1 <0>         0.6709
      8 C8          5.2358    2.3798    1.5634 C.2       1 <0>         0.4867
      9 C9          3.8230    2.3549    1.0577 C.2       1 <0>         0.5883
     10 C10         5.7098    2.8119   -1.6475 C.2       1 <0>         0.6572
     11 C11         0.9373   -1.3775    2.5204 C.3       1 <0>        -0.0802
     12 C12         1.7394   -1.1823    1.2365 C.3       1 <0>        -0.0765
     13 C13         1.1123   -0.2074    3.4848 C.3       1 <0>        -0.0774
     14 C14         1.4175    0.1558    0.5698 C.3       1 <0>        -0.0953
     15 C15         0.7915    1.1284    2.8128 C.3       1 <0>        -0.0906
     16 C16         4.5614    2.5584   -3.8616 C.3       1 <0>        -0.0871
     17 C17         7.4096    5.5196   -5.7065 C.3       1 <0>        -0.0716
     18 C18         5.7552    2.2338   -4.7574 C.3       1 <0>         0.1333
     19 C19         6.5359    4.2626   -5.8584 C.3       1 <0>         0.1246
     20 C20         5.1372    3.5153   -2.8394 C.3       1 <0>         0.0606
     21 C21         1.5860    1.3498    1.5188 C.3       1 <0>         0.1012
     22 C22         7.8862    5.8039   -4.2626 C.3       1 <0>         0.1554
     23 C23         8.2324    7.2883   -4.1013 C.3       1 <0>        -0.0356
     24 C24         6.0158    5.3379    2.0114 C.3       1 <0>        -0.0795
     25 C25         6.7209    6.4716    2.7653 C.3       1 <0>        -0.1203
     26 C26         6.9719    4.2276    1.5544 C.3       1 <0>        -0.0920
     27 C27         5.7742    7.5909    3.1979 C.3       1 <0>         0.1502
     28 C28         6.2906    3.1130    0.7514 C.3       1 <0>         0.0224
     29 N1          6.2461    4.1312   -3.5428 N.am      1 <0>        -0.3553
     30 N2          6.6457    3.4048   -4.6800 N.3       1 <0>        -0.4320
     31 N3          9.0821    5.0103   -3.9441 N.3       1 <0>        -0.9031
     32 N4          4.7531    7.0666    4.0988 N.3       1 <0>        -0.9068
     33 N5          3.0031    1.5591    1.8235 N.am      1 <0>        -0.5526
     34 N6          5.7762    3.5917   -0.5046 N.am      1 <0>        -0.5576
     35 O1          6.4995    6.0504   -2.2848 O.2       1 <0>        -0.6710
     36 O2          5.4669    1.7271    2.5732 O.2       1 <0>        -0.4901
     37 O3          3.5638    2.9965    0.0528 O.2       1 <0>        -0.5902
     38 O4          6.0670    1.6440   -1.7490 O.2       1 <0>        -0.5833
     39 H1         11.9913    8.8048   -7.6194 H         1 <0>         0.1320
     40 H2         12.6548    7.9430   -5.3897 H         1 <0>         0.1324
     41 H3          9.5904    8.9656   -8.2230 H         1 <0>         0.1328
     42 H4         10.9268    7.2430   -3.7651 H         1 <0>         0.1324
     43 H5          7.8545    8.2683   -6.6056 H         1 <0>         0.1434
     44 H6         -0.1255   -1.4855    2.2708 H         1 <0>         0.0405
     45 H7          1.2453   -2.3083    3.0100 H         1 <0>         0.0421
     46 H8          2.8111   -1.2354    1.4633 H         1 <0>         0.0362
     47 H9          1.5224   -2.0004    0.5402 H         1 <0>         0.0439
     48 H10         0.4593   -0.3469    4.3538 H         1 <0>         0.0350
     49 H11         2.1423   -0.1951    3.8615 H         1 <0>         0.0428
     50 H12         2.0571    0.2818   -0.3122 H         1 <0>         0.0663
     51 H13         0.3811    0.1313    0.2097 H         1 <0>         0.0466
     52 H14        -0.2809    1.1599    2.5817 H         1 <0>         0.0493
     53 H15         0.9880    1.9434    3.5200 H         1 <0>         0.0520
     54 H16         3.7944    3.0721   -4.4543 H         1 <0>         0.0915
     55 H17         4.1162    1.6608   -3.4217 H         1 <0>         0.0601
     56 H18         8.2801    5.4412   -6.3721 H         1 <0>         0.0688
     57 H19         6.8297    6.3763   -6.0759 H         1 <0>         0.0630
     58 H20         6.2922    1.3700   -4.3474 H         1 <0>         0.0807
     59 H21         5.4490    1.9715   -5.7762 H         1 <0>         0.0380
     60 H22         5.4939    4.5694   -6.0242 H         1 <0>         0.0484
     61 H23         6.8523    3.7181   -6.7562 H         1 <0>         0.0697
     62 H24         4.4225    4.2667   -2.4920 H         1 <0>         0.0843
     63 H25         1.2460    2.2668    1.0263 H         1 <0>         0.0831
     64 H26         8.5747    7.4635   -3.0797 H         1 <0>         0.0704
     65 H27         7.3253    7.8806   -4.2350 H         1 <0>         0.0718
     66 H28         5.2579    4.9142    2.6804 H         1 <0>         0.0606
     67 H29         5.4809    5.7546    1.1500 H         1 <0>         0.0458
     68 H30         7.2000    6.0392    3.6534 H         1 <0>         0.0375
     69 H31         7.5258    6.8807    2.1417 H         1 <0>         0.0392
     70 H32         7.4599    3.7926    2.4354 H         1 <0>         0.0606
     71 H33         7.7645    4.6634    0.9347 H         1 <0>         0.0579
     72 H34         5.2908    8.0386    2.3228 H         1 <0>         0.0571
     73 H35         6.3225    8.3806    3.7198 H         1 <0>         0.0503
     74 H36         7.0421    2.3587    0.4881 H         1 <0>         0.0993
     75 H37         9.1461    4.0964   -4.3289 H         1 <0>         0.3700
     76 H38         9.6671    5.3316   -3.2079 H         1 <0>         0.3660
     77 H39         4.0028    7.6695    4.3608 H         1 <0>         0.3465
     78 H40         4.9421    6.2118    4.5770 H         1 <0>         0.3446
     79 H41         3.3981    1.0960    2.6365 H         1 <0>         0.3148
     80 H42         5.4441    4.5531   -0.5557 H         1 <0>         0.3220
@<TRIPOS>BOND
     1    1    2 ar
     2    1    3 ar
     3    2    4 ar
     4    3    5 ar
     5    4    6 ar
     6    5    6 ar
     7    6   23 1
     8    7   22 1
     9    7   29 am
    10    7   35 2
    11    8    9 1
    12    8   28 1
    13    8   36 2
    14    9   33 am
    15    9   37 2
    16   10   20 1
    17   10   34 am
    18   10   38 2
    19   11   12 1
    20   11   13 1
    21   12   14 1
    22   13   15 1
    23   14   21 1
    24   15   21 1
    25   16   18 1
    26   16   20 1
    27   17   19 1
    28   17   22 1
    29   18   30 1
    30   19   30 1
    31   20   29 1
    32   21   33 1
    33   22   23 1
    34   22   31 1
    35   24   25 1
    36   24   26 1
    37   25   27 1
    38   26   28 1
    39   27   32 1
    40   28   34 1
    41   29   30 1
    42    1   39 1
    43    2   40 1
    44    3   41 1
    45    4   42 1
    46    5   43 1
    47   11   44 1
    48   11   45 1
    49   12   46 1
    50   12   47 1
    51   13   48 1
    52   13   49 1
    53   14   50 1
    54   14   51 1
    55   15   52 1
    56   15   53 1
    57   16   54 1
    58   16   55 1
    59   17   56 1
    60   17   57 1
    61   18   58 1
    62   18   59 1
    63   19   60 1
    64   19   61 1
    65   20   62 1
    66   21   63 1
    67   23   64 1
    68   23   65 1
    69   24   66 1
    70   24   67 1
    71   25   68 1
    72   25   69 1
    73   26   70 1
    74   26   71 1
    75   27   72 1
    76   27   73 1
    77   28   74 1
    78   31   75 1
    79   31   76 1
    80   32   77 1
    81   32   78 1
    82   33   79 1
    83   34   80 1
@<TRIPOS>MOLECULE
1a46_ligand_352
   80    83     0     0     0
SMALL
USER_CHARGES

mmff94s_NoEstat = 91.33
@<TRIPOS>ATOM
      1 C1         11.0121    9.2104   -7.9325 C.ar      1 <0>        -0.1300
      2 C2         11.5385    8.8832   -6.6829 C.ar      1 <0>        -0.1323
      3 C3          9.6345    9.1559   -8.1449 C.ar      1 <0>        -0.1309
      4 C4         10.6874    8.5015   -5.6458 C.ar      1 <0>        -0.1275
      5 C5          8.7834    8.7742   -7.1078 C.ar      1 <0>        -0.1272
      6 C6          9.3154    8.4495   -5.8650 C.ar      1 <0>        -0.0843
      7 C7          7.2411    6.0968   -3.6024 C.2       1 <0>         0.6709
      8 C8          5.2358    2.3798    1.5634 C.2       1 <0>         0.4867
      9 C9          4.9672    2.8271    2.9706 C.2       1 <0>         0.5883
     10 C10         6.5256    3.6321   -1.6689 C.2       1 <0>         0.6572
     11 C11         8.8237    3.6691    5.9396 C.3       1 <0>        -0.0802
     12 C12         8.4143    2.2154    5.7182 C.3       1 <0>        -0.0765
     13 C13         7.9441    4.6352    5.1505 C.3       1 <0>        -0.0774
     14 C14         6.9289    1.9984    6.0102 C.3       1 <0>        -0.0953
     15 C15         6.4599    4.4127    5.4442 C.3       1 <0>        -0.0906
     16 C16         5.2113    3.0694   -3.7284 C.3       1 <0>        -0.0871
     17 C17         7.6012    6.0599   -6.1012 C.3       1 <0>        -0.0716
     18 C18         6.3446    2.7580   -4.7039 C.3       1 <0>         0.1333
     19 C19         6.8355    4.7264   -6.0536 C.3       1 <0>         0.1246
     20 C20         5.7868    4.1659   -2.8575 C.3       1 <0>         0.0606
     21 C21         6.0219    2.9580    5.2283 C.3       1 <0>         0.1012
     22 C22         8.1773    6.5224   -4.7422 C.3       1 <0>         0.1554
     23 C23         8.4000    8.0389   -4.7494 C.3       1 <0>        -0.0356
     24 C24         8.0800    4.9598    0.7851 C.3       1 <0>        -0.0795
     25 C25         8.7880    6.0338    1.6192 C.3       1 <0>        -0.1203
     26 C26         6.9719    4.2276    1.5544 C.3       1 <0>        -0.0920
     27 C27         9.9095    6.7454    0.8629 C.3       1 <0>         0.1502
     28 C28         6.2906    3.1130    0.7514 C.3       1 <0>         0.0224
     29 N1          6.7674    4.7991   -3.7183 N.am      1 <0>        -0.3553
     30 N2          7.1280    4.0001   -4.8193 N.3       1 <0>        -0.4320
     31 N3          9.4643    5.8648   -4.4722 N.3       1 <0>        -0.9031
     32 N4          9.3732    7.4215   -0.3138 N.3       1 <0>        -0.9068
     33 N5          6.0450    2.6279    3.8016 N.am      1 <0>        -0.5526
     34 N6          5.7762    3.5917   -0.5046 N.am      1 <0>        -0.5576
     35 O1          6.9567    6.8465   -2.6685 O.2       1 <0>        -0.6710
     36 O2          4.5176    1.4899    1.1258 O.2       1 <0>        -0.4901
     37 O3          3.8636    3.2805    3.2258 O.2       1 <0>        -0.5902
     38 O4          7.6924    3.2783   -1.7917 O.2       1 <0>        -0.5833
     39 H1         11.6747    9.5075   -8.7400 H         1 <0>         0.1320
     40 H2         12.6111    8.9257   -6.5176 H         1 <0>         0.1324
     41 H3          9.2248    9.4105   -9.1180 H         1 <0>         0.1328
     42 H4         11.1066    8.2484   -4.6756 H         1 <0>         0.1324
     43 H5          7.7115    8.7346   -7.2826 H         1 <0>         0.1434
     44 H6          8.7541    3.9064    7.0085 H         1 <0>         0.0405
     45 H7          9.8722    3.8052    5.6513 H         1 <0>         0.0421
     46 H8          8.6349    1.9271    4.6833 H         1 <0>         0.0362
     47 H9          9.0138    1.5629    6.3632 H         1 <0>         0.0439
     48 H10         8.2166    5.6671    5.3998 H         1 <0>         0.0350
     49 H11         8.1330    4.5082    4.0777 H         1 <0>         0.0428
     50 H12         6.6650    0.9589    5.7810 H         1 <0>         0.0663
     51 H13         6.7551    2.1408    7.0844 H         1 <0>         0.0466
     52 H14         6.2591    4.6939    6.4859 H         1 <0>         0.0493
     53 H15         5.8638    5.0834    4.8136 H         1 <0>         0.0520
     54 H16         4.3507    3.4578   -4.2870 H         1 <0>         0.0915
     55 H17         4.8908    2.1856   -3.1683 H         1 <0>         0.0601
     56 H18         8.4120    5.9885   -6.8390 H         1 <0>         0.0688
     57 H19         6.9149    6.8257   -6.4876 H         1 <0>         0.0630
     58 H20         6.9926    1.9855   -4.2725 H         1 <0>         0.0807
     59 H21         5.9735    2.3729   -5.6602 H         1 <0>         0.0380
     60 H22         5.7592    4.9288   -6.1435 H         1 <0>         0.0484
     61 H23         7.1185    4.1245   -6.9255 H         1 <0>         0.0697
     62 H24         5.0406    4.8864   -2.5107 H         1 <0>         0.0843
     63 H25         4.9826    2.8313    5.5492 H         1 <0>         0.0831
     64 H26         8.8151    8.3408   -3.7861 H         1 <0>         0.0704
     65 H27         7.4343    8.5386   -4.8464 H         1 <0>         0.0718
     66 H28         7.6494    5.4516   -0.0948 H         1 <0>         0.0606
     67 H29         8.8216    4.2418    0.4157 H         1 <0>         0.0458
     68 H30         8.0356    6.7709    1.9287 H         1 <0>         0.0375
     69 H31         9.1825    5.5824    2.5383 H         1 <0>         0.0392
     70 H32         6.2171    4.9575    1.8728 H         1 <0>         0.0606
     71 H33         7.3929    3.7874    2.4660 H         1 <0>         0.0579
     72 H34        10.6735    6.0252    0.5509 H         1 <0>         0.0571
     73 H35        10.3920    7.4923    1.5001 H         1 <0>         0.0503
     74 H36         7.0421    2.3587    0.4881 H         1 <0>         0.0993
     75 H37         9.5764    4.9261   -4.7778 H         1 <0>         0.3700
     76 H38        10.0811    6.3037   -3.8286 H         1 <0>         0.3660
     77 H39        10.0182    7.8250   -0.9589 H         1 <0>         0.3465
     78 H40         8.3988    7.6342   -0.3305 H         1 <0>         0.3446
     79 H41         6.8947    2.2345    3.4084 H         1 <0>         0.3148
     80 H42         4.8120    3.9176   -0.5391 H         1 <0>         0.3220
@<TRIPOS>BOND
     1    1    2 ar
     2    1    3 ar
     3    2    4 ar
     4    3    5 ar
     5    4    6 ar
     6    5    6 ar
     7    6   23 1
     8    7   22 1
     9    7   29 am
    10    7   35 2
    11    8    9 1
    12    8   28 1
    13    8   36 2
    14    9   33 am
    15    9   37 2
    16   10   20 1
    17   10   34 am
    18   10   38 2
    19   11   12 1
    20   11   13 1
    21   12   14 1
    22   13   15 1
    23   14   21 1
    24   15   21 1
    25   16   18 1
    26   16   20 1
    27   17   19 1
    28   17   22 1
    29   18   30 1
    30   19   30 1
    31   20   29 1
    32   21   33 1
    33   22   23 1
    34   22   31 1
    35   24   25 1
    36   24   26 1
    37   25   27 1
    38   26   28 1
    39   27   32 1
    40   28   34 1
    41   29   30 1
    42    1   39 1
    43    2   40 1
    44    3   41 1
    45    4   42 1
    46    5   43 1
    47   11   44 1
    48   11   45 1
    49   12   46 1
    50   12   47 1
    51   13   48 1
    52   13   49 1
    53   14   50 1
    54   14   51 1
    55   15   52 1
    56   15   53 1
    57   16   54 1
    58   16   55 1
    59   17   56 1
    60   17   57 1
    61   18   58 1
    62   18   59 1
    63   19   60 1
    64   19   61 1
    65   20   62 1
    66   21   63 1
    67   23   64 1
    68   23   65 1
    69   24   66 1
    70   24   67 1
    71   25   68 1
    72   25   69 1
    73   26   70 1
    74   26   71 1
    75   27   72 1
    76   27   73 1
    77   28   74 1
    78   31   75 1
    79   31   76 1
    80   32   77 1
    81   32   78 1
    82   33   79 1
    83   34   80 1
@<TRIPOS>MOLECULE
1a46_ligand_353
   80    83     0     0     0
SMALL
USER_CHARGES

mmff94s_NoEstat = 91.35
@<TRIPOS>ATOM
      1 C1          9.3427    1.2226  -10.2936 C.ar      1 <0>        -0.1300
      2 C2          9.9666    0.8172   -9.1138 C.ar      1 <0>        -0.1323
      3 C3          8.4336    2.2805  -10.2739 C.ar      1 <0>        -0.1309
      4 C4          9.6814    1.4695   -7.9143 C.ar      1 <0>        -0.1275
      5 C5          8.1485    2.9328   -9.0744 C.ar      1 <0>        -0.1272
      6 C6          8.7742    2.5231   -7.9024 C.ar      1 <0>        -0.0843
      7 C7          6.9710    3.2795   -4.5657 C.2       1 <0>         0.6709
      8 C8          5.2358    2.3798    1.5634 C.2       1 <0>         0.4867
      9 C9          4.0737    1.7586    0.8450 C.2       1 <0>         0.5883
     10 C10         5.7098    2.8119   -1.6475 C.2       1 <0>         0.6572
     11 C11        -0.3436    3.9389    1.2073 C.3       1 <0>        -0.0802
     12 C12         0.7010    3.9825    0.0952 C.3       1 <0>        -0.0765
     13 C13         0.1158    3.0864    2.3872 C.3       1 <0>        -0.0774
     14 C14         1.1119    2.5771   -0.3462 C.3       1 <0>        -0.0953
     15 C15         0.5285    1.6832    1.9406 C.3       1 <0>        -0.0906
     16 C16         3.6624    3.2324   -3.0320 C.3       1 <0>        -0.0871
     17 C17         6.0388    2.5547   -6.7975 C.3       1 <0>        -0.0716
     18 C18         3.6514    1.9752   -3.8994 C.3       1 <0>         0.1333
     19 C19         4.6996    2.4463   -6.0480 C.3       1 <0>         0.1246
     20 C20         5.1372    3.5153   -2.8394 C.3       1 <0>         0.0606
     21 C21         1.5791    1.6990    0.8223 C.3       1 <0>         0.1012
     22 C22         7.2891    2.5653   -5.8869 C.3       1 <0>         0.1554
     23 C23         8.4675    3.2247   -6.6121 C.3       1 <0>        -0.0356
     24 C24         8.0800    4.9598    0.7851 C.3       1 <0>        -0.0795
     25 C25         8.7880    6.0338    1.6192 C.3       1 <0>        -0.1203
     26 C26         6.9719    4.2276    1.5544 C.3       1 <0>        -0.0920
     27 C27         9.9095    6.7454    0.8629 C.3       1 <0>         0.1502
     28 C28         6.2906    3.1130    0.7514 C.3       1 <0>         0.0224
     29 N1          5.7488    2.9259   -4.0152 N.am      1 <0>        -0.3553
     30 N2          4.9069    2.0073   -4.6693 N.3       1 <0>        -0.4320
     31 N3          7.6768    1.1953   -5.5201 N.3       1 <0>        -0.9031
     32 N4         10.5470    7.7366    1.7233 N.3       1 <0>        -0.9068
     33 N5          2.8617    2.1823    1.3384 N.am      1 <0>        -0.5526
     34 N6          5.7762    3.5917   -0.5046 N.am      1 <0>        -0.5576
     35 O1          7.7474    4.0812   -4.0464 O.2       1 <0>        -0.6710
     36 O2          5.3022    2.1819    2.7699 O.2       1 <0>        -0.4901
     37 O3          4.3127    0.9617   -0.0474 O.2       1 <0>        -0.5902
     38 O4          6.0670    1.6440   -1.7490 O.2       1 <0>        -0.5833
     39 H1          9.5646    0.7147  -11.2275 H         1 <0>         0.1320
     40 H2         10.6743   -0.0064   -9.1292 H         1 <0>         0.1324
     41 H3          7.9478    2.5960  -11.1926 H         1 <0>         0.1328
     42 H4         10.1723    1.1467   -7.0000 H         1 <0>         0.1324
     43 H5          7.4388    3.7559   -9.0687 H         1 <0>         0.1434
     44 H6         -0.5606    4.9570    1.5500 H         1 <0>         0.0405
     45 H7         -1.2805    3.5306    0.8084 H         1 <0>         0.0421
     46 H8          0.3010    4.5344   -0.7632 H         1 <0>         0.0362
     47 H9          1.5825    4.5342    0.4435 H         1 <0>         0.0439
     48 H10         0.9579    3.5789    2.8881 H         1 <0>         0.0350
     49 H11        -0.6923    3.0136    3.1241 H         1 <0>         0.0428
     50 H12         0.2551    2.0946   -0.8336 H         1 <0>         0.0663
     51 H13         1.9045    2.6541   -1.1004 H         1 <0>         0.0466
     52 H14         0.9075    1.1266    2.8064 H         1 <0>         0.0493
     53 H15        -0.3618    1.1493    1.5846 H         1 <0>         0.0520
     54 H16         3.1996    4.0578   -3.5869 H         1 <0>         0.0915
     55 H17         3.1150    3.0948   -2.0945 H         1 <0>         0.0601
     56 H18         6.1186    1.7328   -7.5220 H         1 <0>         0.0688
     57 H19         6.0134    3.4760   -7.3953 H         1 <0>         0.0630
     58 H20         3.6705    1.0888   -3.2538 H         1 <0>         0.0807
     59 H21         2.7495    1.9066   -4.5175 H         1 <0>         0.0380
     60 H22         4.1937    3.4213   -6.0771 H         1 <0>         0.0484
     61 H23         4.0529    1.7380   -6.5798 H         1 <0>         0.0697
     62 H24         5.3721    4.5807   -2.7630 H         1 <0>         0.0843
     63 H25         1.7625    0.6785    0.4701 H         1 <0>         0.0831
     64 H26         9.3395    3.2124   -5.9558 H         1 <0>         0.0704
     65 H27         8.2279    4.2735   -6.7972 H         1 <0>         0.0718
     66 H28         7.6494    5.4516   -0.0948 H         1 <0>         0.0606
     67 H29         8.8216    4.2418    0.4157 H         1 <0>         0.0458
     68 H30         8.0356    6.7709    1.9287 H         1 <0>         0.0375
     69 H31         9.1825    5.5824    2.5383 H         1 <0>         0.0392
     70 H32         6.2171    4.9575    1.8728 H         1 <0>         0.0606
     71 H33         7.3929    3.7874    2.4660 H         1 <0>         0.0579
     72 H34         9.5108    7.2416   -0.0285 H         1 <0>         0.0571
     73 H35        10.6706    6.0303    0.5375 H         1 <0>         0.0503
     74 H36         7.0421    2.3587    0.4881 H         1 <0>         0.0993
     75 H37         6.9507    0.5323   -5.3773 H         1 <0>         0.3700
     76 H38         8.6161    1.0420   -5.2343 H         1 <0>         0.3660
     77 H39        11.2163    8.3531    1.3147 H         1 <0>         0.3465
     78 H40        10.4498    7.6340    2.7108 H         1 <0>         0.3446
     79 H41         2.8559    2.8605    2.0944 H         1 <0>         0.3148
     80 H42         5.4441    4.5531   -0.5557 H         1 <0>         0.3220
@<TRIPOS>BOND
     1    1    2 ar
     2    1    3 ar
     3    2    4 ar
     4    3    5 ar
     5    4    6 ar
     6    5    6 ar
     7    6   23 1
     8    7   22 1
     9    7   29 am
    10    7   35 2
    11    8    9 1
    12    8   28 1
    13    8   36 2
    14    9   33 am
    15    9   37 2
    16   10   20 1
    17   10   34 am
    18   10   38 2
    19   11   12 1
    20   11   13 1
    21   12   14 1
    22   13   15 1
    23   14   21 1
    24   15   21 1
    25   16   18 1
    26   16   20 1
    27   17   19 1
    28   17   22 1
    29   18   30 1
    30   19   30 1
    31   20   29 1
    32   21   33 1
    33   22   23 1
    34   22   31 1
    35   24   25 1
    36   24   26 1
    37   25   27 1
    38   26   28 1
    39   27   32 1
    40   28   34 1
    41   29   30 1
    42    1   39 1
    43    2   40 1
    44    3   41 1
    45    4   42 1
    46    5   43 1
    47   11   44 1
    48   11   45 1
    49   12   46 1
    50   12   47 1
    51   13   48 1
    52   13   49 1
    53   14   50 1
    54   14   51 1
    55   15   52 1
    56   15   53 1
    57   16   54 1
    58   16   55 1
    59   17   56 1
    60   17   57 1
    61   18   58 1
    62   18   59 1
    63   19   60 1
    64   19   61 1
    65   20   62 1
    66   21   63 1
    67   23   64 1
    68   23   65 1
    69   24   66 1
    70   24   67 1
    71   25   68 1
    72   25   69 1
    73   26   70 1
    74   26   71 1
    75   27   72 1
    76   27   73 1
    77   28   74 1
    78   31   75 1
    79   31   76 1
    80   32   77 1
    81   32   78 1
    82   33   79 1
    83   34   80 1
@<TRIPOS>MOLECULE
1a46_ligand_354
   80    83     0     0     0
SMALL
USER_CHARGES

mmff94s_NoEstat = 91.35
@<TRIPOS>ATOM
      1 C1         -4.2961    6.3604   -2.7495 C.ar      1 <0>        -0.1300
      2 C2         -3.8917    5.7888   -1.5431 C.ar      1 <0>        -0.1323
      3 C3         -3.4839    6.2539   -3.8786 C.ar      1 <0>        -0.1309
      4 C4         -2.6752    5.1109   -1.4657 C.ar      1 <0>        -0.1275
      5 C5         -2.2674    5.5759   -3.8012 C.ar      1 <0>        -0.1272
      6 C6         -1.8709    5.0088   -2.5952 C.ar      1 <0>        -0.0843
      7 C7          1.9202    4.4855   -2.0375 C.2       1 <0>         0.6709
      8 C8          5.2358    2.3798    1.5634 C.2       1 <0>         0.4867
      9 C9          4.0737    1.7586    0.8450 C.2       1 <0>         0.5883
     10 C10         4.7954    4.5647   -0.6048 C.2       1 <0>         0.6572
     11 C11         2.7850   -2.8611    2.0259 C.3       1 <0>        -0.0802
     12 C12         3.9909   -2.6832    1.1072 C.3       1 <0>        -0.0765
     13 C13         2.1882   -1.5212    2.4484 C.3       1 <0>        -0.0774
     14 C14         3.6545   -1.8060   -0.0995 C.3       1 <0>        -0.0953
     15 C15         1.8557   -0.6469    1.2385 C.3       1 <0>        -0.0906
     16 C16         5.1345    6.1376   -2.5274 C.3       1 <0>        -0.0871
     17 C17         0.6797    6.3873   -3.1418 C.3       1 <0>        -0.0716
     18 C18         4.2227    7.2889   -2.1078 C.3       1 <0>         0.1333
     19 C19         2.0578    7.0682   -3.2043 C.3       1 <0>         0.1246
     20 C20         4.4137    4.9104   -2.0113 C.3       1 <0>         0.0606
     21 C21         3.0526   -0.4516    0.2982 C.3       1 <0>         0.1012
     22 C22         0.5786    5.2268   -2.1241 C.3       1 <0>         0.1554
     23 C23        -0.5623    4.2796   -2.5120 C.3       1 <0>        -0.0356
     24 C24         7.6485    3.7409    2.8432 C.3       1 <0>        -0.0795
     25 C25         8.2774    4.8743    3.6620 C.3       1 <0>        -0.1203
     26 C26         6.9719    4.2276    1.5544 C.3       1 <0>        -0.0920
     27 C27         8.9284    4.3945    4.9589 C.3       1 <0>         0.1502
     28 C28         6.2906    3.1130    0.7514 C.3       1 <0>         0.0224
     29 N1          3.0235    5.3233   -1.9852 N.am      1 <0>        -0.3553
     30 N2          2.8653    6.7208   -2.0365 N.3       1 <0>        -0.4320
     31 N3          0.3159    5.7420   -0.7724 N.3       1 <0>        -0.9031
     32 N4          9.4866    5.5266    5.6910 N.3       1 <0>        -0.9068
     33 N5          4.0688    0.3864    0.9385 N.am      1 <0>        -0.5526
     34 N6          5.7762    3.5917   -0.5046 N.am      1 <0>        -0.5576
     35 O1          1.9934    3.2573   -2.0040 O.2       1 <0>        -0.6710
     36 O2          5.3022    2.1819    2.7699 O.2       1 <0>        -0.4901
     37 O3          3.3003    2.4996    0.2605 O.2       1 <0>        -0.5902
     38 O4          4.2448    5.1367    0.3286 O.2       1 <0>        -0.5833
     39 H1         -5.2433    6.8883   -2.8098 H         1 <0>         0.1320
     40 H2         -4.5242    5.8718   -0.6641 H         1 <0>         0.1324
     41 H3         -3.7988    6.6991   -4.8178 H         1 <0>         0.1328
     42 H4         -2.3683    4.6687   -0.5215 H         1 <0>         0.1324
     43 H5         -1.6411    5.4981   -4.6860 H         1 <0>         0.1434
     44 H6          2.0191   -3.4518    1.5083 H         1 <0>         0.0405
     45 H7          3.0792   -3.4306    2.9148 H         1 <0>         0.0421
     46 H8          4.8179   -2.2361    1.6718 H         1 <0>         0.0362
     47 H9          4.3372   -3.6641    0.7620 H         1 <0>         0.0439
     48 H10         1.2800   -1.6931    3.0373 H         1 <0>         0.0350
     49 H11         2.8950   -0.9962    3.1023 H         1 <0>         0.0428
     50 H12         4.5607   -1.6547   -0.6985 H         1 <0>         0.0663
     51 H13         2.9380   -2.3402   -0.7364 H         1 <0>         0.0466
     52 H14         1.0358   -1.1145    0.6784 H         1 <0>         0.0493
     53 H15         1.4878    0.3256    1.5875 H         1 <0>         0.0520
     54 H16         5.1868    6.0993   -3.6226 H         1 <0>         0.0915
     55 H17         6.1502    6.2483   -2.1355 H         1 <0>         0.0601
     56 H18        -0.0889    7.1398   -2.9187 H         1 <0>         0.0688
     57 H19         0.4458    6.0134   -4.1479 H         1 <0>         0.0630
     58 H20         4.5037    7.6265   -1.1030 H         1 <0>         0.0807
     59 H21         4.3115    8.1522   -2.7765 H         1 <0>         0.0380
     60 H22         2.5627    6.7687   -4.1331 H         1 <0>         0.0484
     61 H23         1.9139    8.1541   -3.2580 H         1 <0>         0.0697
     62 H24         4.5519    4.0254   -2.6387 H         1 <0>         0.0843
     63 H25         2.7361    0.0920   -0.5981 H         1 <0>         0.0831
     64 H26        -0.6211    3.4755   -1.7762 H         1 <0>         0.0704
     65 H27        -0.3254    3.8127   -3.4698 H         1 <0>         0.0718
     66 H28         8.4445    3.0306    2.5915 H         1 <0>         0.0606
     67 H29         6.9275    3.2007    3.4679 H         1 <0>         0.0458
     68 H30         9.0354    5.3625    3.0356 H         1 <0>         0.0375
     69 H31         7.5157    5.6329    3.8824 H         1 <0>         0.0392
     70 H32         7.7210    4.7221    0.9235 H         1 <0>         0.0606
     71 H33         6.2174    4.9831    1.8035 H         1 <0>         0.0579
     72 H34         9.7251    3.6753    4.7403 H         1 <0>         0.0571
     73 H35         8.1937    3.8977    5.5994 H         1 <0>         0.0503
     74 H36         7.0421    2.3587    0.4881 H         1 <0>         0.0993
     75 H37         0.7364    6.6054   -0.5173 H         1 <0>         0.3700
     76 H38        -0.0926    5.1211   -0.1128 H         1 <0>         0.3660
     77 H39        10.0430    5.3371    6.4969 H         1 <0>         0.3465
     78 H40         9.1331    6.4373    5.4892 H         1 <0>         0.3446
     79 H41         4.8027   -0.0660    1.4755 H         1 <0>         0.3148
     80 H42         6.1527    3.1949   -1.3636 H         1 <0>         0.3220
@<TRIPOS>BOND
     1    1    2 ar
     2    1    3 ar
     3    2    4 ar
     4    3    5 ar
     5    4    6 ar
     6    5    6 ar
     7    6   23 1
     8    7   22 1
     9    7   29 am
    10    7   35 2
    11    8    9 1
    12    8   28 1
    13    8   36 2
    14    9   33 am
    15    9   37 2
    16   10   20 1
    17   10   34 am
    18   10   38 2
    19   11   12 1
    20   11   13 1
    21   12   14 1
    22   13   15 1
    23   14   21 1
    24   15   21 1
    25   16   18 1
    26   16   20 1
    27   17   19 1
    28   17   22 1
    29   18   30 1
    30   19   30 1
    31   20   29 1
    32   21   33 1
    33   22   23 1
    34   22   31 1
    35   24   25 1
    36   24   26 1
    37   25   27 1
    38   26   28 1
    39   27   32 1
    40   28   34 1
    41   29   30 1
    42    1   39 1
    43    2   40 1
    44    3   41 1
    45    4   42 1
    46    5   43 1
    47   11   44 1
    48   11   45 1
    49   12   46 1
    50   12   47 1
    51   13   48 1
    52   13   49 1
    53   14   50 1
    54   14   51 1
    55   15   52 1
    56   15   53 1
    57   16   54 1
    58   16   55 1
    59   17   56 1
    60   17   57 1
    61   18   58 1
    62   18   59 1
    63   19   60 1
    64   19   61 1
    65   20   62 1
    66   21   63 1
    67   23   64 1
    68   23   65 1
    69   24   66 1
    70   24   67 1
    71   25   68 1
    72   25   69 1
    73   26   70 1
    74   26   71 1
    75   27   72 1
    76   27   73 1
    77   28   74 1
    78   31   75 1
    79   31   76 1
    80   32   77 1
    81   32   78 1
    82   33   79 1
    83   34   80 1
@<TRIPOS>MOLECULE
1a46_ligand_355
   80    83     0     0     0
SMALL
USER_CHARGES

mmff94s_NoEstat = 91.63
@<TRIPOS>ATOM
      1 C1         -7.1732    5.1663  -14.6915 C.ar      1 <0>        -0.1300
      2 C2         -5.9354    5.8086  -14.7170 C.ar      1 <0>        -0.1323
      3 C3         -7.6444    4.6069  -13.5037 C.ar      1 <0>        -0.1309
      4 C4         -5.1685    5.8915  -13.5548 C.ar      1 <0>        -0.1275
      5 C5         -6.8775    4.6898  -12.3415 C.ar      1 <0>        -0.1272
      6 C6         -5.6446    5.3316  -12.3746 C.ar      1 <0>        -0.0843
      7 C7         -3.0329    4.3040   -9.7137 C.2       1 <0>         0.6709
      8 C8          2.7796    3.2097   -6.1637 C.2       1 <0>         0.4867
      9 C9          2.0233    2.5606   -5.0416 C.2       1 <0>         0.5883
     10 C10        -0.2306    3.3845   -8.4382 C.2       1 <0>         0.6572
     11 C11        -2.1778   -0.4001   -3.7894 C.3       1 <0>        -0.0802
     12 C12        -1.1151   -1.2915   -4.4257 C.3       1 <0>        -0.0765
     13 C13        -1.5532    0.7706   -3.0355 C.3       1 <0>        -0.0774
     14 C14        -0.1689   -0.4905   -5.3185 C.3       1 <0>        -0.0953
     15 C15        -0.6070    1.5740   -3.9262 C.3       1 <0>        -0.0906
     16 C16        -1.6648    1.3674   -8.0386 C.3       1 <0>        -0.0871
     17 C17        -4.6909    2.9009  -11.0011 C.3       1 <0>        -0.0716
     18 C18        -1.8612    0.8785   -9.4723 C.3       1 <0>         0.1333
     19 C19        -3.9819    1.7050  -10.3424 C.3       1 <0>         0.1246
     20 C20        -1.6152    2.8736   -8.1831 C.3       1 <0>         0.0606
     21 C21         0.4653    0.6767   -4.5542 C.3       1 <0>         0.1012
     22 C22        -3.8794    4.2177  -10.9915 C.3       1 <0>         0.1554
     23 C23        -4.8198    5.4208  -11.1245 C.3       1 <0>        -0.0356
     24 C24         1.5857    6.0302   -6.5865 C.3       1 <0>        -0.0795
     25 C25         1.6811    7.5259   -6.9095 C.3       1 <0>        -0.1203
     26 C26         2.1570    5.1335   -7.6933 C.3       1 <0>        -0.0920
     27 C27         1.0885    8.4192   -5.8200 C.3       1 <0>         0.1502
     28 C28         2.0196    3.6328   -7.4097 C.3       1 <0>         0.0224
     29 N1         -2.3880    3.1216   -9.3852 N.am      1 <0>        -0.3553
     30 N2         -2.5540    1.9705  -10.1777 N.3       1 <0>        -0.4320
     31 N3         -2.9247    4.2482  -12.1092 N.3       1 <0>        -0.9031
     32 N4          1.1980    9.8225   -6.2046 N.3       1 <0>        -0.9068
     33 N5          1.3052    1.4630   -5.4557 N.am      1 <0>        -0.5526
     34 N6          0.6426    3.2153   -7.3763 N.am      1 <0>        -0.5576
     35 O1         -2.9337    5.3408   -9.0578 O.2       1 <0>        -0.6710
     36 O2          3.9949    3.2835   -6.0334 O.2       1 <0>        -0.4901
     37 O3          2.1023    3.0632   -3.9326 O.2       1 <0>        -0.5902
     38 O4          0.0350    3.8958   -9.5198 O.2       1 <0>        -0.5833
     39 H1         -7.7703    5.1016  -15.5965 H         1 <0>         0.1320
     40 H2         -5.5686    6.2441  -15.6419 H         1 <0>         0.1324
     41 H3         -8.6082    4.1066  -13.4840 H         1 <0>         0.1328
     42 H4         -4.2053    6.3939  -13.5842 H         1 <0>         0.1324
     43 H5         -7.2527    4.2510  -11.4207 H         1 <0>         0.1434
     44 H6         -2.8459   -0.0157   -4.5701 H         1 <0>         0.0405
     45 H7         -2.7944   -0.9929   -3.1042 H         1 <0>         0.0421
     46 H8         -0.5375   -1.7906   -3.6377 H         1 <0>         0.0362
     47 H9         -1.5989   -2.0787   -5.0147 H         1 <0>         0.0439
     48 H10        -2.3433    1.4259   -2.6518 H         1 <0>         0.0350
     49 H11        -1.0014    0.3921   -2.1662 H         1 <0>         0.0428
     50 H12         0.6133   -1.1512   -5.7113 H         1 <0>         0.0663
     51 H13        -0.7214   -0.1127   -6.1889 H         1 <0>         0.0466
     52 H14        -1.1851    2.0746   -4.7140 H         1 <0>         0.0493
     53 H15        -0.1331    2.3681   -3.3366 H         1 <0>         0.0520
     54 H16        -2.5383    1.0847   -7.4380 H         1 <0>         0.0915
     55 H17        -0.7712    0.9407   -7.5731 H         1 <0>         0.0601
     56 H18        -4.9589    2.6417  -12.0345 H         1 <0>         0.0688
     57 H19        -5.6440    3.0543  -10.4769 H         1 <0>         0.0630
     58 H20        -0.8817    0.7357   -9.9443 H         1 <0>         0.0807
     59 H21        -2.3843   -0.0833   -9.5137 H         1 <0>         0.0380
     60 H22        -4.4563    1.4977   -9.3732 H         1 <0>         0.0484
     61 H23        -4.1342    0.8159  -10.9661 H         1 <0>         0.0697
     62 H24        -2.0334    3.4095   -7.3263 H         1 <0>         0.0843
     63 H25         1.1303    0.2910   -3.7729 H         1 <0>         0.0831
     64 H26        -4.2259    6.3366  -11.1252 H         1 <0>         0.0704
     65 H27        -5.4653    5.4651  -10.2453 H         1 <0>         0.0718
     66 H28         2.1358    5.8550   -5.6547 H         1 <0>         0.0606
     67 H29         0.5392    5.7688   -6.3906 H         1 <0>         0.0458
     68 H30         2.7419    7.7748   -7.0444 H         1 <0>         0.0375
     69 H31         1.1870    7.7255   -7.8687 H         1 <0>         0.0392
     70 H32         3.2164    5.3787   -7.8393 H         1 <0>         0.0606
     71 H33         1.6466    5.3535   -8.6384 H         1 <0>         0.0579
     72 H34         1.6137    8.2608   -4.8719 H         1 <0>         0.0571
     73 H35         0.0315    8.1861   -5.6617 H         1 <0>         0.0503
     74 H36         2.4714    3.0747   -8.2388 H         1 <0>         0.0993
     75 H37        -2.4982    3.3913  -12.3759 H         1 <0>         0.3700
     76 H38        -2.5954    5.1358  -12.4112 H         1 <0>         0.3660
     77 H39         0.9557   10.5154   -5.5293 H         1 <0>         0.3465
     78 H40         1.3102   10.0373   -7.1723 H         1 <0>         0.3446
     79 H41         1.3611    1.1865   -6.4314 H         1 <0>         0.3148
     80 H42         0.2924    2.7728   -6.5286 H         1 <0>         0.3220
@<TRIPOS>BOND
     1    1    2 ar
     2    1    3 ar
     3    2    4 ar
     4    3    5 ar
     5    4    6 ar
     6    5    6 ar
     7    6   23 1
     8    7   22 1
     9    7   29 am
    10    7   35 2
    11    8    9 1
    12    8   28 1
    13    8   36 2
    14    9   33 am
    15    9   37 2
    16   10   20 1
    17   10   34 am
    18   10   38 2
    19   11   12 1
    20   11   13 1
    21   12   14 1
    22   13   15 1
    23   14   21 1
    24   15   21 1
    25   16   18 1
    26   16   20 1
    27   17   19 1
    28   17   22 1
    29   18   30 1
    30   19   30 1
    31   20   29 1
    32   21   33 1
    33   22   23 1
    34   22   31 1
    35   24   25 1
    36   24   26 1
    37   25   27 1
    38   26   28 1
    39   27   32 1
    40   28   34 1
    41   29   30 1
    42    1   39 1
    43    2   40 1
    44    3   41 1
    45    4   42 1
    46    5   43 1
    47   11   44 1
    48   11   45 1
    49   12   46 1
    50   12   47 1
    51   13   48 1
    52   13   49 1
    53   14   50 1
    54   14   51 1
    55   15   52 1
    56   15   53 1
    57   16   54 1
    58   16   55 1
    59   17   56 1
    60   17   57 1
    61   18   58 1
    62   18   59 1
    63   19   60 1
    64   19   61 1
    65   20   62 1
    66   21   63 1
    67   23   64 1
    68   23   65 1
    69   24   66 1
    70   24   67 1
    71   25   68 1
    72   25   69 1
    73   26   70 1
    74   26   71 1
    75   27   72 1
    76   27   73 1
    77   28   74 1
    78   31   75 1
    79   31   76 1
    80   32   77 1
    81   32   78 1
    82   33   79 1
    83   34   80 1
@<TRIPOS>MOLECULE
1a46_ligand_356
   80    83     0     0     0
SMALL
USER_CHARGES

mmff94s_NoEstat = 91.69
@<TRIPOS>ATOM
      1 C1         -5.9518    1.0529  -15.7574 C.ar      1 <0>        -0.1300
      2 C2         -4.7078    1.6646  -15.9115 C.ar      1 <0>        -0.1323
      3 C3         -6.6077    1.1063  -14.5275 C.ar      1 <0>        -0.1309
      4 C4         -4.1196    2.3297  -14.8357 C.ar      1 <0>        -0.1275
      5 C5         -6.0195    1.7714  -13.4517 C.ar      1 <0>        -0.1272
      6 C6         -4.7793    2.3787  -13.6128 C.ar      1 <0>        -0.0843
      7 C7         -2.6173    2.8751  -10.4447 C.2       1 <0>         0.6709
      8 C8          2.7796    3.2097   -6.1637 C.2       1 <0>         0.4867
      9 C9          2.0233    2.5606   -5.0416 C.2       1 <0>         0.5883
     10 C10        -0.0591    2.8141   -8.5012 C.2       1 <0>         0.6572
     11 C11         2.5902    0.7660    0.0253 C.3       1 <0>        -0.0802
     12 C12         2.9560   -0.2487   -1.0542 C.3       1 <0>        -0.0765
     13 C13         1.5499    1.7661   -0.4711 C.3       1 <0>        -0.0774
     14 C14         3.4072    0.4370   -2.3427 C.3       1 <0>        -0.0953
     15 C15         1.9999    2.4546   -1.7585 C.3       1 <0>        -0.0906
     16 C16        -1.5879    1.1654   -7.3921 C.3       1 <0>        -0.0871
     17 C17        -4.1019    0.9486  -11.1228 C.3       1 <0>        -0.0716
     18 C18        -1.5823    0.0424   -8.4274 C.3       1 <0>         0.1333
     19 C19        -3.5290    0.2485   -9.8784 C.3       1 <0>         0.1246
     20 C20        -1.4789    2.4202   -8.2321 C.3       1 <0>         0.0606
     21 C21         2.3546    1.4321   -2.8437 C.3       1 <0>         0.1012
     22 C22        -3.2673    2.1480  -11.6303 C.3       1 <0>         0.1554
     23 C23        -4.1466    3.0941  -12.4556 C.3       1 <0>        -0.0356
     24 C24         1.4445    5.5921   -8.9731 C.3       1 <0>        -0.0795
     25 C25         1.6370    7.0835   -9.2718 C.3       1 <0>        -0.1203
     26 C26         2.1570    5.1335   -7.6933 C.3       1 <0>        -0.0920
     27 C27         0.9502    7.5360  -10.5601 C.3       1 <0>         0.1502
     28 C28         2.0196    3.6328   -7.4097 C.3       1 <0>         0.0224
     29 N1         -2.0587    2.0261   -9.5019 N.am      1 <0>        -0.3553
     30 N2         -2.1349    0.6298   -9.6602 N.3       1 <0>        -0.4320
     31 N3         -2.1572    1.6877  -12.4773 N.3       1 <0>        -0.9031
     32 N4          1.1922    8.9569  -10.7874 N.3       1 <0>        -0.9068
     33 N5          2.8497    2.1219   -4.0334 N.am      1 <0>        -0.5526
     34 N6          0.6426    3.2153   -7.3763 N.am      1 <0>        -0.5576
     35 O1         -2.5899    4.1027  -10.3594 O.2       1 <0>        -0.6710
     36 O2          3.9949    3.2835   -6.0334 O.2       1 <0>        -0.4901
     37 O3          0.8106    2.4734   -5.1444 O.2       1 <0>        -0.5902
     38 O4          0.3766    2.7593   -9.6452 O.2       1 <0>        -0.5833
     39 H1         -6.4098    0.5350  -16.5951 H         1 <0>         0.1320
     40 H2         -4.1972    1.6230  -16.8692 H         1 <0>         0.1324
     41 H3         -7.5763    0.6298  -14.4076 H         1 <0>         0.1328
     42 H4         -3.1501    2.8034  -14.9651 H         1 <0>         0.1324
     43 H5         -6.5379    1.8077  -12.4972 H         1 <0>         0.1434
     44 H6          2.2067    0.2429    0.9085 H         1 <0>         0.0405
     45 H7          3.4927    1.3049    0.3391 H         1 <0>         0.0421
     46 H8          3.7531   -0.9055   -0.6878 H         1 <0>         0.0362
     47 H9          2.0885   -0.8860   -1.2657 H         1 <0>         0.0439
     48 H10         0.5995    1.2478   -0.6483 H         1 <0>         0.0350
     49 H11         1.3637    2.5188    0.3033 H         1 <0>         0.0428
     50 H12         4.3590    0.9550   -2.1658 H         1 <0>         0.0663
     51 H13         3.6041   -0.3191   -3.1124 H         1 <0>         0.0466
     52 H14         1.2052    3.1203   -2.1167 H         1 <0>         0.0493
     53 H15         2.8677    3.0930   -1.5464 H         1 <0>         0.0520
     54 H16        -2.5475    1.1615   -6.8606 H         1 <0>         0.0915
     55 H17        -0.7842    1.0569   -6.6575 H         1 <0>         0.0601
     56 H18        -4.2204    0.2148  -11.9317 H         1 <0>         0.0688
     57 H19        -5.1178    1.2870  -10.8778 H         1 <0>         0.0630
     58 H20        -0.5477   -0.2605   -8.6286 H         1 <0>         0.0807
     59 H21        -2.1179   -0.8467   -8.0766 H         1 <0>         0.0380
     60 H22        -4.1468    0.5063   -9.0071 H         1 <0>         0.0484
     61 H23        -3.6100   -0.8367  -10.0142 H         1 <0>         0.0697
     62 H24        -2.0054    3.2790   -7.8063 H         1 <0>         0.0843
     63 H25         1.4523    0.8927   -3.1543 H         1 <0>         0.0831
     64 H26        -3.5359    3.9262  -12.8108 H         1 <0>         0.0704
     65 H27        -4.9137    3.5213  -11.8072 H         1 <0>         0.0718
     66 H28         0.3683    5.4079   -8.8774 H         1 <0>         0.0606
     67 H29         1.7918    5.0040   -9.8306 H         1 <0>         0.0458
     68 H30         1.2300    7.6523   -8.4256 H         1 <0>         0.0375
     69 H31         2.7093    7.3123   -9.3176 H         1 <0>         0.0392
     70 H32         1.7604    5.7005   -6.8419 H         1 <0>         0.0606
     71 H33         3.2243    5.3739   -7.7660 H         1 <0>         0.0579
     72 H34        -0.1287    7.3572  -10.4981 H         1 <0>         0.0571
     73 H35         1.3345    6.9786  -11.4193 H         1 <0>         0.0503
     74 H36         2.4714    3.0747   -8.2388 H         1 <0>         0.0993
     75 H37        -1.7180    0.8294  -12.2371 H         1 <0>         0.3700
     76 H38        -1.7642    2.3382  -13.1175 H         1 <0>         0.3660
     77 H39         0.7014    9.4044  -11.5317 H         1 <0>         0.3465
     78 H40         1.9755    9.3785  -10.3359 H         1 <0>         0.3446
     79 H41         3.8486    2.2844   -4.1196 H         1 <0>         0.3148
     80 H42         0.1596    3.2148   -6.4798 H         1 <0>         0.3220
@<TRIPOS>BOND
     1    1    2 ar
     2    1    3 ar
     3    2    4 ar
     4    3    5 ar
     5    4    6 ar
     6    5    6 ar
     7    6   23 1
     8    7   22 1
     9    7   29 am
    10    7   35 2
    11    8    9 1
    12    8   28 1
    13    8   36 2
    14    9   33 am
    15    9   37 2
    16   10   20 1
    17   10   34 am
    18   10   38 2
    19   11   12 1
    20   11   13 1
    21   12   14 1
    22   13   15 1
    23   14   21 1
    24   15   21 1
    25   16   18 1
    26   16   20 1
    27   17   19 1
    28   17   22 1
    29   18   30 1
    30   19   30 1
    31   20   29 1
    32   21   33 1
    33   22   23 1
    34   22   31 1
    35   24   25 1
    36   24   26 1
    37   25   27 1
    38   26   28 1
    39   27   32 1
    40   28   34 1
    41   29   30 1
    42    1   39 1
    43    2   40 1
    44    3   41 1
    45    4   42 1
    46    5   43 1
    47   11   44 1
    48   11   45 1
    49   12   46 1
    50   12   47 1
    51   13   48 1
    52   13   49 1
    53   14   50 1
    54   14   51 1
    55   15   52 1
    56   15   53 1
    57   16   54 1
    58   16   55 1
    59   17   56 1
    60   17   57 1
    61   18   58 1
    62   18   59 1
    63   19   60 1
    64   19   61 1
    65   20   62 1
    66   21   63 1
    67   23   64 1
    68   23   65 1
    69   24   66 1
    70   24   67 1
    71   25   68 1
    72   25   69 1
    73   26   70 1
    74   26   71 1
    75   27   72 1
    76   27   73 1
    77   28   74 1
    78   31   75 1
    79   31   76 1
    80   32   77 1
    81   32   78 1
    82   33   79 1
    83   34   80 1
@<TRIPOS>MOLECULE
1a46_ligand_357
   80    83     0     0     0
SMALL
USER_CHARGES

mmff94s_NoEstat = 91.87
@<TRIPOS>ATOM
      1 C1         11.0121    9.2104   -7.9325 C.ar      1 <0>        -0.1300
      2 C2         11.5385    8.8832   -6.6829 C.ar      1 <0>        -0.1323
      3 C3          9.6345    9.1559   -8.1449 C.ar      1 <0>        -0.1309
      4 C4         10.6874    8.5015   -5.6458 C.ar      1 <0>        -0.1275
      5 C5          8.7834    8.7742   -7.1078 C.ar      1 <0>        -0.1272
      6 C6          9.3154    8.4495   -5.8650 C.ar      1 <0>        -0.0843
      7 C7          7.2411    6.0968   -3.6024 C.2       1 <0>         0.6709
      8 C8          5.2358    2.3798    1.5634 C.2       1 <0>         0.4867
      9 C9          5.6522    1.1980    2.3894 C.2       1 <0>         0.5883
     10 C10         6.5256    3.6321   -1.6689 C.2       1 <0>         0.6572
     11 C11         9.7158   -1.2429    1.0016 C.3       1 <0>        -0.0802
     12 C12         8.2405   -1.5331    0.7382 C.3       1 <0>        -0.0765
     13 C13         9.9090    0.0370    1.8104 C.3       1 <0>        -0.0774
     14 C14         7.4308   -1.5537    2.0353 C.3       1 <0>        -0.0953
     15 C15         9.0955    0.0125    3.1053 C.3       1 <0>        -0.0906
     16 C16         5.2113    3.0694   -3.7284 C.3       1 <0>        -0.0871
     17 C17         7.6012    6.0599   -6.1012 C.3       1 <0>        -0.0716
     18 C18         6.3446    2.7580   -4.7039 C.3       1 <0>         0.1333
     19 C19         6.8355    4.7264   -6.0536 C.3       1 <0>         0.1246
     20 C20         5.7868    4.1659   -2.8575 C.3       1 <0>         0.0606
     21 C21         7.6074   -0.2769    2.8680 C.3       1 <0>         0.1012
     22 C22         8.1773    6.5224   -4.7422 C.3       1 <0>         0.1554
     23 C23         8.4000    8.0389   -4.7494 C.3       1 <0>        -0.0356
     24 C24         6.0158    5.3379    2.0114 C.3       1 <0>        -0.0795
     25 C25         6.7209    6.4716    2.7653 C.3       1 <0>        -0.1203
     26 C26         6.9719    4.2276    1.5544 C.3       1 <0>        -0.0920
     27 C27         5.7742    7.5909    3.1979 C.3       1 <0>         0.1502
     28 C28         6.2906    3.1130    0.7514 C.3       1 <0>         0.0224
     29 N1          6.7674    4.7991   -3.7183 N.am      1 <0>        -0.3553
     30 N2          7.1280    4.0001   -4.8193 N.3       1 <0>        -0.4320
     31 N3          9.4643    5.8648   -4.4722 N.3       1 <0>        -0.9031
     32 N4          6.5168    8.6391    3.8900 N.3       1 <0>        -0.9068
     33 N5          6.9710    0.8584    2.1962 N.am      1 <0>        -0.5526
     34 N6          5.7762    3.5917   -0.5046 N.am      1 <0>        -0.5576
     35 O1          6.9567    6.8465   -2.6685 O.2       1 <0>        -0.6710
     36 O2          4.0675    2.7325    1.6631 O.2       1 <0>        -0.4901
     37 O3          4.8107    0.6708    3.0985 O.2       1 <0>        -0.5902
     38 O4          7.6924    3.2783   -1.7917 O.2       1 <0>        -0.5833
     39 H1         11.6747    9.5075   -8.7400 H         1 <0>         0.1320
     40 H2         12.6111    8.9257   -6.5176 H         1 <0>         0.1324
     41 H3          9.2248    9.4105   -9.1180 H         1 <0>         0.1328
     42 H4         11.1066    8.2484   -4.6756 H         1 <0>         0.1324
     43 H5          7.7115    8.7346   -7.2826 H         1 <0>         0.1434
     44 H6         10.1593   -2.0859    1.5458 H         1 <0>         0.0405
     45 H7         10.2516   -1.1619    0.0491 H         1 <0>         0.0421
     46 H8          7.8341   -0.7738    0.0592 H         1 <0>         0.0362
     47 H9          8.1416   -2.4986    0.2289 H         1 <0>         0.0439
     48 H10        10.9714    0.1649    2.0472 H         1 <0>         0.0350
     49 H11         9.6136    0.9012    1.2032 H         1 <0>         0.0428
     50 H12         6.3711   -1.7044    1.7959 H         1 <0>         0.0663
     51 H13         7.7466   -2.4163    2.6358 H         1 <0>         0.0466
     52 H14         9.5071   -0.7601    3.7673 H         1 <0>         0.0493
     53 H15         9.2152    0.9716    3.6236 H         1 <0>         0.0520
     54 H16         4.3507    3.4578   -4.2870 H         1 <0>         0.0915
     55 H17         4.8908    2.1856   -3.1683 H         1 <0>         0.0601
     56 H18         8.4120    5.9885   -6.8390 H         1 <0>         0.0688
     57 H19         6.9149    6.8257   -6.4876 H         1 <0>         0.0630
     58 H20         6.9926    1.9855   -4.2725 H         1 <0>         0.0807
     59 H21         5.9735    2.3729   -5.6602 H         1 <0>         0.0380
     60 H22         5.7592    4.9288   -6.1435 H         1 <0>         0.0484
     61 H23         7.1185    4.1245   -6.9255 H         1 <0>         0.0697
     62 H24         5.0406    4.8864   -2.5107 H         1 <0>         0.0843
     63 H25         7.0921   -0.3851    3.8281 H         1 <0>         0.0831
     64 H26         8.8151    8.3408   -3.7861 H         1 <0>         0.0704
     65 H27         7.4343    8.5386   -4.8464 H         1 <0>         0.0718
     66 H28         5.2579    4.9142    2.6804 H         1 <0>         0.0606
     67 H29         5.4809    5.7546    1.1500 H         1 <0>         0.0458
     68 H30         7.2000    6.0392    3.6534 H         1 <0>         0.0375
     69 H31         7.5258    6.8807    2.1417 H         1 <0>         0.0392
     70 H32         7.4599    3.7926    2.4354 H         1 <0>         0.0606
     71 H33         7.7645    4.6634    0.9347 H         1 <0>         0.0579
     72 H34         4.9986    7.1962    3.8630 H         1 <0>         0.0571
     73 H35         5.2784    8.0349    2.3297 H         1 <0>         0.0503
     74 H36         7.0421    2.3587    0.4881 H         1 <0>         0.0993
     75 H37         9.5764    4.9261   -4.7778 H         1 <0>         0.3700
     76 H38        10.0811    6.3037   -3.8286 H         1 <0>         0.3660
     77 H39         5.9996    9.3711    4.3277 H         1 <0>         0.3465
     78 H40         7.4997    8.7018    3.7315 H         1 <0>         0.3446
     79 H41         7.5283    1.4199    1.5594 H         1 <0>         0.3148
     80 H42         4.8120    3.9176   -0.5391 H         1 <0>         0.3220
@<TRIPOS>BOND
     1    1    2 ar
     2    1    3 ar
     3    2    4 ar
     4    3    5 ar
     5    4    6 ar
     6    5    6 ar
     7    6   23 1
     8    7   22 1
     9    7   29 am
    10    7   35 2
    11    8    9 1
    12    8   28 1
    13    8   36 2
    14    9   33 am
    15    9   37 2
    16   10   20 1
    17   10   34 am
    18   10   38 2
    19   11   12 1
    20   11   13 1
    21   12   14 1
    22   13   15 1
    23   14   21 1
    24   15   21 1
    25   16   18 1
    26   16   20 1
    27   17   19 1
    28   17   22 1
    29   18   30 1
    30   19   30 1
    31   20   29 1
    32   21   33 1
    33   22   23 1
    34   22   31 1
    35   24   25 1
    36   24   26 1
    37   25   27 1
    38   26   28 1
    39   27   32 1
    40   28   34 1
    41   29   30 1
    42    1   39 1
    43    2   40 1
    44    3   41 1
    45    4   42 1
    46    5   43 1
    47   11   44 1
    48   11   45 1
    49   12   46 1
    50   12   47 1
    51   13   48 1
    52   13   49 1
    53   14   50 1
    54   14   51 1
    55   15   52 1
    56   15   53 1
    57   16   54 1
    58   16   55 1
    59   17   56 1
    60   17   57 1
    61   18   58 1
    62   18   59 1
    63   19   60 1
    64   19   61 1
    65   20   62 1
    66   21   63 1
    67   23   64 1
    68   23   65 1
    69   24   66 1
    70   24   67 1
    71   25   68 1
    72   25   69 1
    73   26   70 1
    74   26   71 1
    75   27   72 1
    76   27   73 1
    77   28   74 1
    78   31   75 1
    79   31   76 1
    80   32   77 1
    81   32   78 1
    82   33   79 1
    83   34   80 1
@<TRIPOS>MOLECULE
1a46_ligand_358
   80    83     0     0     0
SMALL
USER_CHARGES

mmff94s_NoEstat = 91.88
@<TRIPOS>ATOM
      1 C1         -7.1814    8.1831  -11.8066 C.ar      1 <0>        -0.1300
      2 C2         -5.8511    8.6018  -11.7877 C.ar      1 <0>        -0.1323
      3 C3         -7.6137    7.1932  -10.9240 C.ar      1 <0>        -0.1309
      4 C4         -4.9529    8.0306  -10.8863 C.ar      1 <0>        -0.1275
      5 C5         -6.7155    6.6220  -10.0225 C.ar      1 <0>        -0.1272
      6 C6         -5.3910    7.0444  -10.0096 C.ar      1 <0>        -0.0843
      7 C7         -2.7477    4.5672   -8.6551 C.2       1 <0>         0.6709
      8 C8          2.7796    3.2097   -6.1637 C.2       1 <0>         0.4867
      9 C9          2.2829    2.0299   -5.3801 C.2       1 <0>         0.5883
     10 C10        -0.0591    2.8141   -8.5012 C.2       1 <0>         0.6572
     11 C11        -2.1182    0.0637   -2.9350 C.3       1 <0>        -0.0802
     12 C12        -1.2822   -0.6402   -4.0001 C.3       1 <0>        -0.0765
     13 C13        -1.2651    0.9841   -2.0667 C.3       1 <0>        -0.0774
     14 C14        -0.4933    0.3571   -4.8469 C.3       1 <0>        -0.0953
     15 C15        -0.4755    1.9830   -2.9108 C.3       1 <0>        -0.0906
     16 C16        -1.8142    1.0434   -8.7649 C.3       1 <0>        -0.0871
     17 C17        -4.7936    4.1559  -10.0766 C.3       1 <0>        -0.0716
     18 C18        -2.2713    1.3172  -10.1964 C.3       1 <0>         0.1333
     19 C19        -4.2684    2.7130  -10.1718 C.3       1 <0>         0.1246
     20 C20        -1.4789    2.4202   -8.2321 C.3       1 <0>         0.0606
     21 C21         0.3712    1.2712   -3.9717 C.3       1 <0>         0.1012
     22 C22        -3.7376    5.2000   -9.6434 C.3       1 <0>         0.1554
     23 C23        -4.4248    6.4299   -9.0399 C.3       1 <0>        -0.0356
     24 C24         3.6080    5.6033   -7.8654 C.3       1 <0>        -0.0795
     25 C25         3.7321    7.1143   -8.0937 C.3       1 <0>        -0.1203
     26 C26         2.1570    5.1335   -7.6933 C.3       1 <0>        -0.0920
     27 C27         5.1782    7.5875   -8.2387 C.3       1 <0>         0.1502
     28 C28         2.0196    3.6328   -7.4097 C.3       1 <0>         0.0224
     29 N1         -2.3208    3.2998   -9.0203 N.am      1 <0>        -0.3553
     30 N2         -2.8071    2.6894  -10.1914 N.3       1 <0>        -0.4320
     31 N3         -2.9336    5.6348  -10.7950 N.3       1 <0>        -0.9031
     32 N4          5.8065    6.9420   -9.3866 N.3       1 <0>        -0.9068
     33 N5          1.0538    2.2579   -4.8066 N.am      1 <0>        -0.5526
     34 N6          0.6426    3.2153   -7.3763 N.am      1 <0>        -0.5576
     35 O1         -2.3654    5.1506   -7.6410 O.2       1 <0>        -0.6710
     36 O2          3.8302    3.7133   -5.7870 O.2       1 <0>        -0.4901
     37 O3          2.9978    1.0431   -5.3175 O.2       1 <0>        -0.5902
     38 O4          0.3766    2.7593   -9.6452 O.2       1 <0>        -0.5833
     39 H1         -7.8808    8.6278  -12.5086 H         1 <0>         0.1320
     40 H2         -5.5146    9.3725  -12.4750 H         1 <0>         0.1324
     41 H3         -8.6496    6.8672  -10.9389 H         1 <0>         0.1328
     42 H4         -3.9182    8.3631  -10.8788 H         1 <0>         0.1324
     43 H5         -7.0613    5.8514   -9.3387 H         1 <0>         0.1434
     44 H6         -2.9082    0.6502   -3.4206 H         1 <0>         0.0405
     45 H7         -2.6154   -0.6819   -2.3042 H         1 <0>         0.0421
     46 H8         -0.5872   -1.3379   -3.5168 H         1 <0>         0.0362
     47 H9         -1.9356   -1.2364   -4.6469 H         1 <0>         0.0439
     48 H10        -1.9062    1.5239   -1.3606 H         1 <0>         0.0350
     49 H11        -0.5692    0.3813   -1.4701 H         1 <0>         0.0428
     50 H12         0.1379   -0.1854   -5.5610 H         1 <0>         0.0663
     51 H13        -1.1901    0.9595   -5.4444 H         1 <0>         0.0466
     52 H14        -1.1708    2.6823   -3.3935 H         1 <0>         0.0493
     53 H15         0.1688    2.5859   -2.2595 H         1 <0>         0.0520
     54 H16        -2.6505    0.6220   -8.1933 H         1 <0>         0.0915
     55 H17        -0.9769    0.3401   -8.7238 H         1 <0>         0.0601
     56 H18        -5.2271    4.4505  -11.0420 H         1 <0>         0.0688
     57 H19        -5.6282    4.1614   -9.3624 H         1 <0>         0.0630
     58 H20        -1.4027    1.2932  -10.8654 H         1 <0>         0.0807
     59 H21        -2.9789    0.5622  -10.5565 H         1 <0>         0.0380
     60 H22        -4.6584    2.1340   -9.3232 H         1 <0>         0.0484
     61 H23        -4.6688    2.2501  -11.0817 H         1 <0>         0.0697
     62 H24        -1.6773    2.5360   -7.1628 H         1 <0>         0.0843
     63 H25         1.1581    0.6834   -3.4853 H         1 <0>         0.0831
     64 H26        -3.6625    7.1558   -8.7509 H         1 <0>         0.0704
     65 H27        -4.9408    6.1344   -8.1245 H         1 <0>         0.0718
     66 H28         4.0550    5.0981   -8.7294 H         1 <0>         0.0606
     67 H29         4.2035    5.3200   -6.9896 H         1 <0>         0.0458
     68 H30         3.1762    7.3642   -9.0068 H         1 <0>         0.0375
     69 H31         3.2423    7.6502   -7.2709 H         1 <0>         0.0392
     70 H32         1.5916    5.3838   -8.5996 H         1 <0>         0.0606
     71 H33         1.6928    5.6841   -6.8667 H         1 <0>         0.0579
     72 H34         5.7475    7.3513   -7.3332 H         1 <0>         0.0571
     73 H35         5.2173    8.6706   -8.3874 H         1 <0>         0.0503
     74 H36         2.4714    3.0747   -8.2388 H         1 <0>         0.0993
     75 H37        -2.7229    4.9595  -11.4927 H         1 <0>         0.3700
     76 H38        -2.4695    6.5111  -10.7297 H         1 <0>         0.3660
     77 H39         6.7859    7.0740   -9.5225 H         1 <0>         0.3465
     78 H40         5.2151    6.5685  -10.0979 H         1 <0>         0.3446
     79 H41         0.6002    3.1517   -4.9705 H         1 <0>         0.3148
     80 H42         0.1596    3.2148   -6.4798 H         1 <0>         0.3220
@<TRIPOS>BOND
     1    1    2 ar
     2    1    3 ar
     3    2    4 ar
     4    3    5 ar
     5    4    6 ar
     6    5    6 ar
     7    6   23 1
     8    7   22 1
     9    7   29 am
    10    7   35 2
    11    8    9 1
    12    8   28 1
    13    8   36 2
    14    9   33 am
    15    9   37 2
    16   10   20 1
    17   10   34 am
    18   10   38 2
    19   11   12 1
    20   11   13 1
    21   12   14 1
    22   13   15 1
    23   14   21 1
    24   15   21 1
    25   16   18 1
    26   16   20 1
    27   17   19 1
    28   17   22 1
    29   18   30 1
    30   19   30 1
    31   20   29 1
    32   21   33 1
    33   22   23 1
    34   22   31 1
    35   24   25 1
    36   24   26 1
    37   25   27 1
    38   26   28 1
    39   27   32 1
    40   28   34 1
    41   29   30 1
    42    1   39 1
    43    2   40 1
    44    3   41 1
    45    4   42 1
    46    5   43 1
    47   11   44 1
    48   11   45 1
    49   12   46 1
    50   12   47 1
    51   13   48 1
    52   13   49 1
    53   14   50 1
    54   14   51 1
    55   15   52 1
    56   15   53 1
    57   16   54 1
    58   16   55 1
    59   17   56 1
    60   17   57 1
    61   18   58 1
    62   18   59 1
    63   19   60 1
    64   19   61 1
    65   20   62 1
    66   21   63 1
    67   23   64 1
    68   23   65 1
    69   24   66 1
    70   24   67 1
    71   25   68 1
    72   25   69 1
    73   26   70 1
    74   26   71 1
    75   27   72 1
    76   27   73 1
    77   28   74 1
    78   31   75 1
    79   31   76 1
    80   32   77 1
    81   32   78 1
    82   33   79 1
    83   34   80 1
@<TRIPOS>MOLECULE
1a46_ligand_359
   80    83     0     0     0
SMALL
USER_CHARGES

mmff94s_NoEstat = 91.88
@<TRIPOS>ATOM
      1 C1          1.7409   12.3935   -1.5361 C.ar      1 <0>        -0.1300
      2 C2          2.2430   11.8090   -0.3734 C.ar      1 <0>        -0.1323
      3 C3          1.4857   11.6057   -2.6586 C.ar      1 <0>        -0.1309
      4 C4          2.4901   10.4368   -0.3331 C.ar      1 <0>        -0.1275
      5 C5          1.7328   10.2334   -2.6183 C.ar      1 <0>        -0.1272
      6 C6          2.2334    9.6580   -1.4559 C.ar      1 <0>        -0.0843
      7 C7          4.2075    6.3518   -1.8158 C.2       1 <0>         0.6709
      8 C8          5.2358    2.3798    1.5634 C.2       1 <0>         0.4867
      9 C9          4.0737    1.7586    0.8450 C.2       1 <0>         0.5883
     10 C10         6.5648    4.1956   -1.4701 C.2       1 <0>         0.6572
     11 C11         4.1399    1.0694   -3.7914 C.3       1 <0>        -0.0802
     12 C12         3.4005    1.9883   -2.8225 C.3       1 <0>        -0.0765
     13 C13         5.0445    0.0806   -3.0607 C.3       1 <0>        -0.0774
     14 C14         2.6341    1.1920   -1.7655 C.3       1 <0>        -0.0953
     15 C15         4.2740   -0.7115   -2.0034 C.3       1 <0>        -0.0906
     16 C16         6.7154    4.7360   -3.9137 C.3       1 <0>        -0.0871
     17 C17         4.1811    8.4057   -3.2842 C.3       1 <0>        -0.0716
     18 C18         7.2083    6.1802   -3.8482 C.3       1 <0>         0.1333
     19 C19         5.3192    7.7064   -4.0474 C.3       1 <0>         0.1246
     20 C20         5.8189    4.6139   -2.6998 C.3       1 <0>         0.0606
     21 C21         3.5216    0.1899   -1.0153 C.3       1 <0>         0.1012
     22 C22         3.9302    7.8611   -1.8583 C.3       1 <0>         0.1554
     23 C23         2.4991    8.1819   -1.4126 C.3       1 <0>        -0.0356
     24 C24         6.0158    5.3379    2.0114 C.3       1 <0>        -0.0795
     25 C25         6.7209    6.4716    2.7653 C.3       1 <0>        -0.1203
     26 C26         6.9719    4.2276    1.5544 C.3       1 <0>        -0.0920
     27 C27         5.7742    7.5909    3.1979 C.3       1 <0>         0.1502
     28 C28         6.2906    3.1130    0.7514 C.3       1 <0>         0.0224
     29 N1          5.3643    5.9735   -2.4795 N.am      1 <0>        -0.3553
     30 N2          6.1593    6.9309   -3.1367 N.3       1 <0>        -0.4320
     31 N3          4.8633    8.4685   -0.8981 N.3       1 <0>        -0.9031
     32 N4          6.5168    8.6391    3.8900 N.3       1 <0>        -0.9068
     33 N5          4.4695    0.8988   -0.1529 N.am      1 <0>        -0.5526
     34 N6          5.7762    3.5917   -0.5046 N.am      1 <0>        -0.5576
     35 O1          3.4676    5.5621   -1.2293 O.2       1 <0>        -0.6710
     36 O2          5.3022    2.1819    2.7699 O.2       1 <0>        -0.4901
     37 O3          2.9489    2.0822    1.1900 O.2       1 <0>        -0.5902
     38 O4          7.7705    4.4014   -1.3956 O.2       1 <0>        -0.5833
     39 H1          1.5486   13.4619   -1.5674 H         1 <0>         0.1320
     40 H2          2.4416   12.4225    0.5006 H         1 <0>         0.1324
     41 H3          1.0949   12.0609   -3.5639 H         1 <0>         0.1328
     42 H4          2.8813    9.9902    0.5771 H         1 <0>         0.1324
     43 H5          1.5311    9.6276   -3.4978 H         1 <0>         0.1434
     44 H6          3.4096    0.5152   -4.3940 H         1 <0>         0.0405
     45 H7          4.7362    1.6701   -4.4874 H         1 <0>         0.0421
     46 H8          4.1185    2.6582   -2.3340 H         1 <0>         0.0362
     47 H9          2.7030    2.6242   -3.3796 H         1 <0>         0.0439
     48 H10         5.4918   -0.6112   -3.7835 H         1 <0>         0.0350
     49 H11         5.8720    0.6231   -2.5877 H         1 <0>         0.0428
     50 H12         2.1693    1.8883   -1.0570 H         1 <0>         0.0663
     51 H13         1.8182    0.6464   -2.2564 H         1 <0>         0.0466
     52 H14         3.5524   -1.3666   -2.5080 H         1 <0>         0.0493
     53 H15         4.9712   -1.3634   -1.4633 H         1 <0>         0.0520
     54 H16         6.1203    4.5986   -4.8250 H         1 <0>         0.0915
     55 H17         7.5395    4.0162   -3.9259 H         1 <0>         0.0601
     56 H18         4.3839    9.4843   -3.2353 H         1 <0>         0.0688
     57 H19         3.2652    8.3026   -3.8819 H         1 <0>         0.0630
     58 H20         8.1249    6.2239   -3.2478 H         1 <0>         0.0807
     59 H21         7.4504    6.5803   -4.8390 H         1 <0>         0.0380
     60 H22         4.8852    7.0622   -4.8247 H         1 <0>         0.0484
     61 H23         5.9181    8.4662   -4.5637 H         1 <0>         0.0697
     62 H24         4.9753    3.9333   -2.8455 H         1 <0>         0.0843
     63 H25         2.9075   -0.4227   -0.3470 H         1 <0>         0.0831
     64 H26         2.3479    7.7977   -0.4022 H         1 <0>         0.0704
     65 H27         1.7988    7.6502   -2.0594 H         1 <0>         0.0718
     66 H28         5.2579    4.9142    2.6804 H         1 <0>         0.0606
     67 H29         5.4809    5.7546    1.1500 H         1 <0>         0.0458
     68 H30         7.2000    6.0392    3.6534 H         1 <0>         0.0375
     69 H31         7.5258    6.8807    2.1417 H         1 <0>         0.0392
     70 H32         7.4599    3.7926    2.4354 H         1 <0>         0.0606
     71 H33         7.7645    4.6634    0.9347 H         1 <0>         0.0579
     72 H34         4.9986    7.1962    3.8630 H         1 <0>         0.0571
     73 H35         5.2784    8.0349    2.3297 H         1 <0>         0.0503
     74 H36         7.0421    2.3587    0.4881 H         1 <0>         0.0993
     75 H37         5.7856    8.6648   -1.2112 H         1 <0>         0.3700
     76 H38         4.6041    8.4681    0.0612 H         1 <0>         0.3660
     77 H39         5.9996    9.3711    4.3277 H         1 <0>         0.3465
     78 H40         7.4997    8.7018    3.7315 H         1 <0>         0.3446
     79 H41         5.4635    0.7487   -0.2981 H         1 <0>         0.3148
     80 H42         4.7816    3.4809   -0.6931 H         1 <0>         0.3220
@<TRIPOS>BOND
     1    1    2 ar
     2    1    3 ar
     3    2    4 ar
     4    3    5 ar
     5    4    6 ar
     6    5    6 ar
     7    6   23 1
     8    7   22 1
     9    7   29 am
    10    7   35 2
    11    8    9 1
    12    8   28 1
    13    8   36 2
    14    9   33 am
    15    9   37 2
    16   10   20 1
    17   10   34 am
    18   10   38 2
    19   11   12 1
    20   11   13 1
    21   12   14 1
    22   13   15 1
    23   14   21 1
    24   15   21 1
    25   16   18 1
    26   16   20 1
    27   17   19 1
    28   17   22 1
    29   18   30 1
    30   19   30 1
    31   20   29 1
    32   21   33 1
    33   22   23 1
    34   22   31 1
    35   24   25 1
    36   24   26 1
    37   25   27 1
    38   26   28 1
    39   27   32 1
    40   28   34 1
    41   29   30 1
    42    1   39 1
    43    2   40 1
    44    3   41 1
    45    4   42 1
    46    5   43 1
    47   11   44 1
    48   11   45 1
    49   12   46 1
    50   12   47 1
    51   13   48 1
    52   13   49 1
    53   14   50 1
    54   14   51 1
    55   15   52 1
    56   15   53 1
    57   16   54 1
    58   16   55 1
    59   17   56 1
    60   17   57 1
    61   18   58 1
    62   18   59 1
    63   19   60 1
    64   19   61 1
    65   20   62 1
    66   21   63 1
    67   23   64 1
    68   23   65 1
    69   24   66 1
    70   24   67 1
    71   25   68 1
    72   25   69 1
    73   26   70 1
    74   26   71 1
    75   27   72 1
    76   27   73 1
    77   28   74 1
    78   31   75 1
    79   31   76 1
    80   32   77 1
    81   32   78 1
    82   33   79 1
    83   34   80 1
@<TRIPOS>MOLECULE
1a46_ligand_360
   80    83     0     0     0
SMALL
USER_CHARGES

mmff94s_NoEstat = 92.05
@<TRIPOS>ATOM
      1 C1         11.1945    5.3647   -9.7731 C.ar      1 <0>        -0.1300
      2 C2         11.8337    5.1154   -8.5586 C.ar      1 <0>        -0.1323
      3 C3          9.8873    5.8513   -9.7863 C.ar      1 <0>        -0.1309
      4 C4         11.1656    5.3526   -7.3573 C.ar      1 <0>        -0.1275
      5 C5          9.2192    6.0884   -8.5850 C.ar      1 <0>        -0.1272
      6 C6          9.8628    5.8375   -7.3783 C.ar      1 <0>        -0.0843
      7 C7          7.6425    5.1042   -4.2977 C.2       1 <0>         0.6709
      8 C8          5.2358    2.3798    1.5634 C.2       1 <0>         0.4867
      9 C9          5.6522    1.1980    2.3894 C.2       1 <0>         0.5883
     10 C10         6.5256    3.6321   -1.6689 C.2       1 <0>         0.6572
     11 C11        10.4253   -0.3085    1.9086 C.3       1 <0>        -0.0802
     12 C12         9.2851   -0.7852    1.0127 C.3       1 <0>        -0.0765
     13 C13         9.9543    0.7243    2.9291 C.3       1 <0>        -0.0774
     14 C14         8.1009   -1.2974    1.8337 C.3       1 <0>        -0.0953
     15 C15         8.7688    0.2083    3.7457 C.3       1 <0>        -0.0906
     16 C16         4.6595    3.2577   -3.3009 C.3       1 <0>        -0.0871
     17 C17         7.3760    4.3986   -6.7074 C.3       1 <0>        -0.0716
     18 C18         5.3367    2.3027   -4.2819 C.3       1 <0>         0.1333
     19 C19         6.2012    3.5529   -6.1864 C.3       1 <0>         0.1246
     20 C20         5.7868    4.1659   -2.8575 C.3       1 <0>         0.0606
     21 C21         7.6074   -0.2769    2.8680 C.3       1 <0>         0.1012
     22 C22         8.3797    4.8486   -5.6198 C.3       1 <0>         0.1554
     23 C23         9.1441    6.0926   -6.0861 C.3       1 <0>        -0.0356
     24 C24         6.0158    5.3379    2.0114 C.3       1 <0>        -0.0795
     25 C25         6.7209    6.4716    2.7653 C.3       1 <0>        -0.1203
     26 C26         6.9719    4.2276    1.5544 C.3       1 <0>        -0.0920
     27 C27         5.7742    7.5909    3.1979 C.3       1 <0>         0.1502
     28 C28         6.2906    3.1130    0.7514 C.3       1 <0>         0.0224
     29 N1          6.7058    4.1331   -3.9791 N.am      1 <0>        -0.3553
     30 N2          6.4777    3.0462   -4.8435 N.3       1 <0>        -0.4320
     31 N3          9.3531    3.7833   -5.3380 N.3       1 <0>        -0.9031
     32 N4          6.5168    8.6391    3.8900 N.3       1 <0>        -0.9068
     33 N5          6.9710    0.8584    2.1962 N.am      1 <0>        -0.5526
     34 N6          5.7762    3.5917   -0.5046 N.am      1 <0>        -0.5576
     35 O1          7.8821    6.0807   -3.5877 O.2       1 <0>        -0.6710
     36 O2          4.0675    2.7325    1.6631 O.2       1 <0>        -0.4901
     37 O3          4.8107    0.6708    3.0985 O.2       1 <0>        -0.5902
     38 O4          7.6924    3.2783   -1.7917 O.2       1 <0>        -0.5833
     39 H1         11.7147    5.1800  -10.7084 H         1 <0>         0.1320
     40 H2         12.8515    4.7366   -8.5485 H         1 <0>         0.1324
     41 H3          9.3897    6.0452  -10.7320 H         1 <0>         0.1328
     42 H4         11.6716    5.1554   -6.4159 H         1 <0>         0.1324
     43 H5          8.2009    6.4675   -8.6050 H         1 <0>         0.1434
     44 H6         10.8556   -1.1689    2.4360 H         1 <0>         0.0405
     45 H7         11.2244    0.1192    1.2926 H         1 <0>         0.0421
     46 H8          8.9595    0.0385    0.3660 H         1 <0>         0.0362
     47 H9          9.6456   -1.5823    0.3526 H         1 <0>         0.0439
     48 H10        10.7808    0.9784    3.6026 H         1 <0>         0.0350
     49 H11         9.6730    1.6487    2.4103 H         1 <0>         0.0428
     50 H12         7.2841   -1.5718    1.1551 H         1 <0>         0.0663
     51 H13         8.4024   -2.2148    2.3552 H         1 <0>         0.0466
     52 H14         9.1087   -0.6225    4.3772 H         1 <0>         0.0493
     53 H15         8.4251    1.0008    4.4215 H         1 <0>         0.0520
     54 H16         3.9023    3.8458   -3.8340 H         1 <0>         0.0915
     55 H17         4.1709    2.7289   -2.4768 H         1 <0>         0.0601
     56 H18         7.9078    3.8408   -7.4902 H         1 <0>         0.0688
     57 H19         6.9559    5.2827   -7.2061 H         1 <0>         0.0630
     58 H20         5.7303    1.4383   -3.7336 H         1 <0>         0.0807
     59 H21         4.6390    1.9190   -5.0344 H         1 <0>         0.0380
     60 H22         5.2889    4.1652   -6.1941 H         1 <0>         0.0484
     61 H23         6.0298    2.7205   -6.8794 H         1 <0>         0.0697
     62 H24         5.4651    5.1881   -2.6391 H         1 <0>         0.0843
     63 H25         6.8313   -0.7286    3.4947 H         1 <0>         0.0831
     64 H26         9.8520    6.3858   -5.3087 H         1 <0>         0.0704
     65 H27         8.4405    6.9195   -6.1990 H         1 <0>         0.0718
     66 H28         5.2579    4.9142    2.6804 H         1 <0>         0.0606
     67 H29         5.4809    5.7546    1.1500 H         1 <0>         0.0458
     68 H30         7.2000    6.0392    3.6534 H         1 <0>         0.0375
     69 H31         7.5258    6.8807    2.1417 H         1 <0>         0.0392
     70 H32         7.4599    3.7926    2.4354 H         1 <0>         0.0606
     71 H33         7.7645    4.6634    0.9347 H         1 <0>         0.0579
     72 H34         4.9986    7.1962    3.8630 H         1 <0>         0.0571
     73 H35         5.2784    8.0349    2.3297 H         1 <0>         0.0503
     74 H36         7.0421    2.3587    0.4881 H         1 <0>         0.0993
     75 H37         9.0331    2.8434   -5.3754 H         1 <0>         0.3700
     76 H38        10.2196    4.0460   -4.9287 H         1 <0>         0.3660
     77 H39         5.9996    9.3711    4.3277 H         1 <0>         0.3465
     78 H40         7.4997    8.7018    3.7315 H         1 <0>         0.3446
     79 H41         7.5283    1.4199    1.5594 H         1 <0>         0.3148
     80 H42         4.8120    3.9176   -0.5391 H         1 <0>         0.3220
@<TRIPOS>BOND
     1    1    2 ar
     2    1    3 ar
     3    2    4 ar
     4    3    5 ar
     5    4    6 ar
     6    5    6 ar
     7    6   23 1
     8    7   22 1
     9    7   29 am
    10    7   35 2
    11    8    9 1
    12    8   28 1
    13    8   36 2
    14    9   33 am
    15    9   37 2
    16   10   20 1
    17   10   34 am
    18   10   38 2
    19   11   12 1
    20   11   13 1
    21   12   14 1
    22   13   15 1
    23   14   21 1
    24   15   21 1
    25   16   18 1
    26   16   20 1
    27   17   19 1
    28   17   22 1
    29   18   30 1
    30   19   30 1
    31   20   29 1
    32   21   33 1
    33   22   23 1
    34   22   31 1
    35   24   25 1
    36   24   26 1
    37   25   27 1
    38   26   28 1
    39   27   32 1
    40   28   34 1
    41   29   30 1
    42    1   39 1
    43    2   40 1
    44    3   41 1
    45    4   42 1
    46    5   43 1
    47   11   44 1
    48   11   45 1
    49   12   46 1
    50   12   47 1
    51   13   48 1
    52   13   49 1
    53   14   50 1
    54   14   51 1
    55   15   52 1
    56   15   53 1
    57   16   54 1
    58   16   55 1
    59   17   56 1
    60   17   57 1
    61   18   58 1
    62   18   59 1
    63   19   60 1
    64   19   61 1
    65   20   62 1
    66   21   63 1
    67   23   64 1
    68   23   65 1
    69   24   66 1
    70   24   67 1
    71   25   68 1
    72   25   69 1
    73   26   70 1
    74   26   71 1
    75   27   72 1
    76   27   73 1
    77   28   74 1
    78   31   75 1
    79   31   76 1
    80   32   77 1
    81   32   78 1
    82   33   79 1
    83   34   80 1
@<TRIPOS>MOLECULE
1a46_ligand_361
   80    83     0     0     0
SMALL
USER_CHARGES

mmff94s_NoEstat = 92.10
@<TRIPOS>ATOM
      1 C1         11.1945    5.3647   -9.7731 C.ar      1 <0>        -0.1300
      2 C2         11.8337    5.1154   -8.5586 C.ar      1 <0>        -0.1323
      3 C3          9.8873    5.8513   -9.7863 C.ar      1 <0>        -0.1309
      4 C4         11.1656    5.3526   -7.3573 C.ar      1 <0>        -0.1275
      5 C5          9.2192    6.0884   -8.5850 C.ar      1 <0>        -0.1272
      6 C6          9.8628    5.8375   -7.3783 C.ar      1 <0>        -0.0843
      7 C7          7.6425    5.1042   -4.2977 C.2       1 <0>         0.6709
      8 C8          5.2358    2.3798    1.5634 C.2       1 <0>         0.4867
      9 C9          3.8230    2.3549    1.0577 C.2       1 <0>         0.5883
     10 C10         6.5256    3.6321   -1.6689 C.2       1 <0>         0.6572
     11 C11         0.2549    0.8846    4.1406 C.3       1 <0>        -0.0802
     12 C12         1.1098   -0.1999    3.4902 C.3       1 <0>        -0.0765
     13 C13         0.6938    2.2847    3.7198 C.3       1 <0>        -0.0774
     14 C14         1.1471   -0.0500    1.9688 C.3       1 <0>        -0.0953
     15 C15         0.7317    2.4287    2.1977 C.3       1 <0>        -0.0906
     16 C16         4.6595    3.2577   -3.3009 C.3       1 <0>        -0.0871
     17 C17         7.3760    4.3986   -6.7074 C.3       1 <0>        -0.0716
     18 C18         5.3367    2.3027   -4.2819 C.3       1 <0>         0.1333
     19 C19         6.2012    3.5529   -6.1864 C.3       1 <0>         0.1246
     20 C20         5.7868    4.1659   -2.8575 C.3       1 <0>         0.0606
     21 C21         1.5860    1.3498    1.5188 C.3       1 <0>         0.1012
     22 C22         8.3797    4.8486   -5.6198 C.3       1 <0>         0.1554
     23 C23         9.1441    6.0926   -6.0861 C.3       1 <0>        -0.0356
     24 C24         7.6485    3.7409    2.8432 C.3       1 <0>        -0.0795
     25 C25         8.2774    4.8743    3.6620 C.3       1 <0>        -0.1203
     26 C26         6.9719    4.2276    1.5544 C.3       1 <0>        -0.0920
     27 C27         8.9284    4.3945    4.9589 C.3       1 <0>         0.1502
     28 C28         6.2906    3.1130    0.7514 C.3       1 <0>         0.0224
     29 N1          6.7058    4.1331   -3.9791 N.am      1 <0>        -0.3553
     30 N2          6.4777    3.0462   -4.8435 N.3       1 <0>        -0.4320
     31 N3          9.3531    3.7833   -5.3380 N.3       1 <0>        -0.9031
     32 N4          9.4866    5.5266    5.6910 N.3       1 <0>        -0.9068
     33 N5          3.0031    1.5591    1.8235 N.am      1 <0>        -0.5526
     34 N6          5.7762    3.5917   -0.5046 N.am      1 <0>        -0.5576
     35 O1          7.8821    6.0807   -3.5877 O.2       1 <0>        -0.6710
     36 O2          5.4669    1.7271    2.5732 O.2       1 <0>        -0.4901
     37 O3          3.5638    2.9965    0.0528 O.2       1 <0>        -0.5902
     38 O4          7.6924    3.2783   -1.7917 O.2       1 <0>        -0.5833
     39 H1         11.7147    5.1800  -10.7084 H         1 <0>         0.1320
     40 H2         12.8515    4.7366   -8.5485 H         1 <0>         0.1324
     41 H3          9.3897    6.0452  -10.7320 H         1 <0>         0.1328
     42 H4         11.6716    5.1554   -6.4159 H         1 <0>         0.1324
     43 H5          8.2009    6.4675   -8.6050 H         1 <0>         0.1434
     44 H6         -0.7952    0.7347    3.8608 H         1 <0>         0.0405
     45 H7          0.3097    0.7930    5.2313 H         1 <0>         0.0421
     46 H8          2.1288   -0.1526    3.8927 H         1 <0>         0.0362
     47 H9          0.7117   -1.1870    3.7517 H         1 <0>         0.0439
     48 H10         0.0067    3.0272    4.1414 H         1 <0>         0.0350
     49 H11         1.6853    2.4978    4.1373 H         1 <0>         0.0428
     50 H12         1.8181   -0.8090    1.5485 H         1 <0>         0.0663
     51 H13         0.1459   -0.2545    1.5685 H         1 <0>         0.0466
     52 H14        -0.2934    2.3667    1.8106 H         1 <0>         0.0493
     53 H15         1.1088    3.4258    1.9399 H         1 <0>         0.0520
     54 H16         3.9023    3.8458   -3.8340 H         1 <0>         0.0915
     55 H17         4.1709    2.7289   -2.4768 H         1 <0>         0.0601
     56 H18         7.9078    3.8408   -7.4902 H         1 <0>         0.0688
     57 H19         6.9559    5.2827   -7.2061 H         1 <0>         0.0630
     58 H20         5.7303    1.4383   -3.7336 H         1 <0>         0.0807
     59 H21         4.6390    1.9190   -5.0344 H         1 <0>         0.0380
     60 H22         5.2889    4.1652   -6.1941 H         1 <0>         0.0484
     61 H23         6.0298    2.7205   -6.8794 H         1 <0>         0.0697
     62 H24         5.4651    5.1881   -2.6391 H         1 <0>         0.0843
     63 H25         1.4969    1.4354    0.4308 H         1 <0>         0.0831
     64 H26         9.8520    6.3858   -5.3087 H         1 <0>         0.0704
     65 H27         8.4405    6.9195   -6.1990 H         1 <0>         0.0718
     66 H28         8.4445    3.0306    2.5915 H         1 <0>         0.0606
     67 H29         6.9275    3.2007    3.4679 H         1 <0>         0.0458
     68 H30         9.0354    5.3625    3.0356 H         1 <0>         0.0375
     69 H31         7.5157    5.6329    3.8824 H         1 <0>         0.0392
     70 H32         7.7210    4.7221    0.9235 H         1 <0>         0.0606
     71 H33         6.2174    4.9831    1.8035 H         1 <0>         0.0579
     72 H34         9.7251    3.6753    4.7403 H         1 <0>         0.0571
     73 H35         8.1937    3.8977    5.5994 H         1 <0>         0.0503
     74 H36         7.0421    2.3587    0.4881 H         1 <0>         0.0993
     75 H37         9.0331    2.8434   -5.3754 H         1 <0>         0.3700
     76 H38        10.2196    4.0460   -4.9287 H         1 <0>         0.3660
     77 H39        10.0430    5.3371    6.4969 H         1 <0>         0.3465
     78 H40         9.1331    6.4373    5.4892 H         1 <0>         0.3446
     79 H41         3.3981    1.0960    2.6365 H         1 <0>         0.3148
     80 H42         4.8120    3.9176   -0.5391 H         1 <0>         0.3220
@<TRIPOS>BOND
     1    1    2 ar
     2    1    3 ar
     3    2    4 ar
     4    3    5 ar
     5    4    6 ar
     6    5    6 ar
     7    6   23 1
     8    7   22 1
     9    7   29 am
    10    7   35 2
    11    8    9 1
    12    8   28 1
    13    8   36 2
    14    9   33 am
    15    9   37 2
    16   10   20 1
    17   10   34 am
    18   10   38 2
    19   11   12 1
    20   11   13 1
    21   12   14 1
    22   13   15 1
    23   14   21 1
    24   15   21 1
    25   16   18 1
    26   16   20 1
    27   17   19 1
    28   17   22 1
    29   18   30 1
    30   19   30 1
    31   20   29 1
    32   21   33 1
    33   22   23 1
    34   22   31 1
    35   24   25 1
    36   24   26 1
    37   25   27 1
    38   26   28 1
    39   27   32 1
    40   28   34 1
    41   29   30 1
    42    1   39 1
    43    2   40 1
    44    3   41 1
    45    4   42 1
    46    5   43 1
    47   11   44 1
    48   11   45 1
    49   12   46 1
    50   12   47 1
    51   13   48 1
    52   13   49 1
    53   14   50 1
    54   14   51 1
    55   15   52 1
    56   15   53 1
    57   16   54 1
    58   16   55 1
    59   17   56 1
    60   17   57 1
    61   18   58 1
    62   18   59 1
    63   19   60 1
    64   19   61 1
    65   20   62 1
    66   21   63 1
    67   23   64 1
    68   23   65 1
    69   24   66 1
    70   24   67 1
    71   25   68 1
    72   25   69 1
    73   26   70 1
    74   26   71 1
    75   27   72 1
    76   27   73 1
    77   28   74 1
    78   31   75 1
    79   31   76 1
    80   32   77 1
    81   32   78 1
    82   33   79 1
    83   34   80 1
@<TRIPOS>MOLECULE
1a46_ligand_362
   80    83     0     0     0
SMALL
USER_CHARGES

mmff94s_NoEstat = 92.11
@<TRIPOS>ATOM
      1 C1         -3.8356    2.2713   -3.8796 C.ar      1 <0>        -0.1300
      2 C2         -3.3096    1.7701   -2.6889 C.ar      1 <0>        -0.1323
      3 C3         -2.9803    2.7299   -4.8815 C.ar      1 <0>        -0.1309
      4 C4         -1.9283    1.7276   -2.5000 C.ar      1 <0>        -0.1275
      5 C5         -1.5989    2.6874   -4.6926 C.ar      1 <0>        -0.1272
      6 C6         -1.0819    2.1865   -3.5031 C.ar      1 <0>        -0.0843
      7 C7          2.4376    3.3924   -2.4466 C.2       1 <0>         0.6709
      8 C8          5.2358    2.3798    1.5634 C.2       1 <0>         0.4867
      9 C9          4.0737    1.7586    0.8450 C.2       1 <0>         0.5883
     10 C10         4.7954    4.5647   -0.6048 C.2       1 <0>         0.6572
     11 C11         0.9199   -0.9916    3.6331 C.3       1 <0>        -0.0802
     12 C12         2.1821   -1.5440    2.9759 C.3       1 <0>        -0.0765
     13 C13         0.7615    0.5072    3.3920 C.3       1 <0>        -0.0774
     14 C14         2.2381   -1.1995    1.4869 C.3       1 <0>        -0.0953
     15 C15         0.8205    0.8468    1.9020 C.3       1 <0>        -0.0906
     16 C16         4.5014    6.3954   -2.2922 C.3       1 <0>        -0.0871
     17 C17         0.5366    4.6532   -3.5292 C.3       1 <0>        -0.0716
     18 C18         3.1192    6.9141   -1.9004 C.3       1 <0>         0.1333
     19 C19         1.4223    5.8937   -3.3205 C.3       1 <0>         0.1246
     20 C20         4.4137    4.9104   -2.0113 C.3       1 <0>         0.0606
     21 C21         2.0813    0.3030    1.2170 C.3       1 <0>         0.1012
     22 C22         0.9174    3.4339   -2.6568 C.3       1 <0>         0.1554
     23 C23         0.4040    2.1409   -3.2999 C.3       1 <0>        -0.0356
     24 C24         8.0800    4.9598    0.7851 C.3       1 <0>        -0.0795
     25 C25         8.7880    6.0338    1.6192 C.3       1 <0>        -0.1203
     26 C26         6.9719    4.2276    1.5544 C.3       1 <0>        -0.0920
     27 C27         9.9095    6.7454    0.8629 C.3       1 <0>         0.1502
     28 C28         6.2906    3.1130    0.7514 C.3       1 <0>         0.0224
     29 N1          2.9983    4.6251   -2.1500 N.am      1 <0>        -0.3553
     30 N2          2.1971    5.7804   -2.0863 N.3       1 <0>        -0.4320
     31 N3          0.3290    3.5510   -1.3145 N.3       1 <0>        -0.9031
     32 N4         10.5470    7.7366    1.7233 N.3       1 <0>        -0.9068
     33 N5          3.2649    1.0281    1.6841 N.am      1 <0>        -0.5526
     34 N6          5.7762    3.5917   -0.5046 N.am      1 <0>        -0.5576
     35 O1          3.0852    2.3485   -2.5237 O.2       1 <0>        -0.6710
     36 O2          5.3022    2.1819    2.7699 O.2       1 <0>        -0.4901
     37 O3          3.9822    1.9394   -0.3582 O.2       1 <0>        -0.5902
     38 O4          4.2448    5.1367    0.3286 O.2       1 <0>        -0.5833
     39 H1         -4.9112    2.3044   -4.0267 H         1 <0>         0.1320
     40 H2         -3.9757    1.4131   -1.9089 H         1 <0>         0.1324
     41 H3         -3.3900    3.1202   -5.8085 H         1 <0>         0.1328
     42 H4         -1.5275    1.3355   -1.5691 H         1 <0>         0.1324
     43 H5         -0.9402    3.0469   -5.4787 H         1 <0>         0.1434
     44 H6          0.0437   -1.5175    3.2339 H         1 <0>         0.0405
     45 H7          0.9473   -1.1913    4.7103 H         1 <0>         0.0421
     46 H8          3.0658   -1.1393    3.4838 H         1 <0>         0.0362
     47 H9          2.2153   -2.6322    3.1018 H         1 <0>         0.0439
     48 H10        -0.1939    0.8471    3.8080 H         1 <0>         0.0350
     49 H11         1.5506    1.0489    3.9274 H         1 <0>         0.0428
     50 H12         3.1855   -1.5609    1.0691 H         1 <0>         0.0663
     51 H13         1.4356   -1.7395    0.9685 H         1 <0>         0.0466
     52 H14        -0.0635    0.4244    1.4074 H         1 <0>         0.0493
     53 H15         0.7639    1.9351    1.7785 H         1 <0>         0.0520
     54 H16         4.6567    6.5575   -3.3661 H         1 <0>         0.0915
     55 H17         5.3043    6.8996   -1.7458 H         1 <0>         0.0601
     56 H18        -0.5135    4.9205   -3.3490 H         1 <0>         0.0688
     57 H19         0.5944    4.3761   -4.5907 H         1 <0>         0.0630
     58 H20         3.1200    7.1814   -0.8369 H         1 <0>         0.0807
     59 H21         2.8405    7.8136   -2.4605 H         1 <0>         0.0380
     60 H22         2.0843    6.0105   -4.1897 H         1 <0>         0.0484
     61 H23         0.7825    6.7837   -3.2878 H         1 <0>         0.0697
     62 H24         5.0094    4.2996   -2.6955 H         1 <0>         0.0843
     63 H25         2.0251    0.4829    0.1383 H         1 <0>         0.0831
     64 H26         0.6750    1.2965   -2.6636 H         1 <0>         0.0704
     65 H27         0.9139    1.9924   -4.2536 H         1 <0>         0.0718
     66 H28         7.6494    5.4516   -0.0948 H         1 <0>         0.0606
     67 H29         8.8216    4.2418    0.4157 H         1 <0>         0.0458
     68 H30         8.0356    6.7709    1.9287 H         1 <0>         0.0375
     69 H31         9.1825    5.5824    2.5383 H         1 <0>         0.0392
     70 H32         6.2171    4.9575    1.8728 H         1 <0>         0.0606
     71 H33         7.3929    3.7874    2.4660 H         1 <0>         0.0579
     72 H34         9.5108    7.2416   -0.0285 H         1 <0>         0.0571
     73 H35        10.6706    6.0303    0.5375 H         1 <0>         0.0503
     74 H36         7.0421    2.3587    0.4881 H         1 <0>         0.0993
     75 H37         0.2633    4.4591   -0.9165 H         1 <0>         0.3700
     76 H38         0.2131    2.7172   -0.7867 H         1 <0>         0.3660
     77 H39        11.2163    8.3531    1.3147 H         1 <0>         0.3465
     78 H40        10.4498    7.6340    2.7108 H         1 <0>         0.3446
     79 H41         3.4989    0.9899    2.6717 H         1 <0>         0.3148
     80 H42         6.1527    3.1949   -1.3636 H         1 <0>         0.3220
@<TRIPOS>BOND
     1    1    2 ar
     2    1    3 ar
     3    2    4 ar
     4    3    5 ar
     5    4    6 ar
     6    5    6 ar
     7    6   23 1
     8    7   22 1
     9    7   29 am
    10    7   35 2
    11    8    9 1
    12    8   28 1
    13    8   36 2
    14    9   33 am
    15    9   37 2
    16   10   20 1
    17   10   34 am
    18   10   38 2
    19   11   12 1
    20   11   13 1
    21   12   14 1
    22   13   15 1
    23   14   21 1
    24   15   21 1
    25   16   18 1
    26   16   20 1
    27   17   19 1
    28   17   22 1
    29   18   30 1
    30   19   30 1
    31   20   29 1
    32   21   33 1
    33   22   23 1
    34   22   31 1
    35   24   25 1
    36   24   26 1
    37   25   27 1
    38   26   28 1
    39   27   32 1
    40   28   34 1
    41   29   30 1
    42    1   39 1
    43    2   40 1
    44    3   41 1
    45    4   42 1
    46    5   43 1
    47   11   44 1
    48   11   45 1
    49   12   46 1
    50   12   47 1
    51   13   48 1
    52   13   49 1
    53   14   50 1
    54   14   51 1
    55   15   52 1
    56   15   53 1
    57   16   54 1
    58   16   55 1
    59   17   56 1
    60   17   57 1
    61   18   58 1
    62   18   59 1
    63   19   60 1
    64   19   61 1
    65   20   62 1
    66   21   63 1
    67   23   64 1
    68   23   65 1
    69   24   66 1
    70   24   67 1
    71   25   68 1
    72   25   69 1
    73   26   70 1
    74   26   71 1
    75   27   72 1
    76   27   73 1
    77   28   74 1
    78   31   75 1
    79   31   76 1
    80   32   77 1
    81   32   78 1
    82   33   79 1
    83   34   80 1
@<TRIPOS>MOLECULE
1a46_ligand_363
   80    83     0     0     0
SMALL
USER_CHARGES

mmff94s_NoEstat = 92.31
@<TRIPOS>ATOM
      1 C1          9.0003   12.0144   -5.4225 C.ar      1 <0>        -0.1300
      2 C2          9.4537   11.5665   -4.1818 C.ar      1 <0>        -0.1323
      3 C3          7.8120   11.5127   -5.9535 C.ar      1 <0>        -0.1309
      4 C4          8.7189   10.6167   -3.4722 C.ar      1 <0>        -0.1275
      5 C5          7.0772   10.5629   -5.2439 C.ar      1 <0>        -0.1272
      6 C6          7.5355   10.1211   -4.0078 C.ar      1 <0>        -0.0843
      7 C7          6.3757    6.6257   -2.8269 C.2       1 <0>         0.6709
      8 C8          5.2358    2.3798    1.5634 C.2       1 <0>         0.4867
      9 C9          4.0737    1.7586    0.8450 C.2       1 <0>         0.5883
     10 C10         6.5256    3.6321   -1.6689 C.2       1 <0>         0.6572
     11 C11         0.1833    0.2896    3.5104 C.3       1 <0>        -0.0802
     12 C12         1.4091   -0.6199    3.4998 C.3       1 <0>        -0.0765
     13 C13         0.4030    1.5512    2.6797 C.3       1 <0>        -0.0774
     14 C14         1.8531   -0.9493    2.0740 C.3       1 <0>        -0.0953
     15 C15         0.8490    1.2166    1.2557 C.3       1 <0>        -0.0906
     16 C16         5.8400    3.2307   -4.0468 C.3       1 <0>        -0.0871
     17 C17         7.0291    7.4385   -5.1265 C.3       1 <0>        -0.0716
     18 C18         7.1120    3.6562   -4.7776 C.3       1 <0>         0.1333
     19 C19         6.8955    5.9616   -5.5361 C.3       1 <0>         0.1246
     20 C20         5.7868    4.1659   -2.8575 C.3       1 <0>         0.0606
     21 C21         2.0813    0.3030    1.2170 C.3       1 <0>         0.1012
     22 C22         7.1815    7.6752   -3.6055 C.3       1 <0>         0.1554
     23 C23         6.7451    9.0995   -3.2444 C.3       1 <0>        -0.0356
     24 C24         7.6485    3.7409    2.8432 C.3       1 <0>        -0.0795
     25 C25         8.2774    4.8743    3.6620 C.3       1 <0>        -0.1203
     26 C26         6.9719    4.2276    1.5544 C.3       1 <0>        -0.0920
     27 C27         8.9284    4.3945    4.9589 C.3       1 <0>         0.1502
     28 C28         6.2906    3.1130    0.7514 C.3       1 <0>         0.0224
     29 N1          6.5101    5.3360   -3.3173 N.am      1 <0>        -0.3553
     30 N2          7.3084    5.0783   -4.4472 N.3       1 <0>        -0.4320
     31 N3          8.5804    7.4980   -3.1893 N.3       1 <0>        -0.9031
     32 N4          9.4866    5.5266    5.6910 N.3       1 <0>        -0.9068
     33 N5          3.2649    1.0281    1.6841 N.am      1 <0>        -0.5526
     34 N6          5.7762    3.5917   -0.5046 N.am      1 <0>        -0.5576
     35 O1          5.6876    6.9159   -1.8485 O.2       1 <0>        -0.6710
     36 O2          5.3022    2.1819    2.7699 O.2       1 <0>        -0.4901
     37 O3          3.9822    1.9394   -0.3582 O.2       1 <0>        -0.5902
     38 O4          7.6924    3.2783   -1.7917 O.2       1 <0>        -0.5833
     39 H1          9.5724   12.7539   -5.9752 H         1 <0>         0.1320
     40 H2         10.3789   11.9573   -3.7685 H         1 <0>         0.1324
     41 H3          7.4591   11.8615   -6.9197 H         1 <0>         0.1328
     42 H4          9.0800   10.2736   -2.5062 H         1 <0>         0.1324
     43 H5          6.1526   10.1776   -5.6655 H         1 <0>         0.1434
     44 H6         -0.6791   -0.2600    3.1134 H         1 <0>         0.0405
     45 H7         -0.0626    0.5654    4.5421 H         1 <0>         0.0421
     46 H8          2.2298   -0.1338    4.0410 H         1 <0>         0.0362
     47 H9          1.1821   -1.5481    4.0367 H         1 <0>         0.0439
     48 H10        -0.5242    2.1347    2.6460 H         1 <0>         0.0350
     49 H11         1.1568    2.1822    3.1658 H         1 <0>         0.0428
     50 H12         2.7685   -1.5522    2.1121 H         1 <0>         0.0663
     51 H13         1.0834   -1.5703    1.5983 H         1 <0>         0.0466
     52 H14         0.0215    0.7202    0.7329 H         1 <0>         0.0493
     53 H15         1.0533    2.1483    0.7143 H         1 <0>         0.0520
     54 H16         4.9736    3.4114   -4.6951 H         1 <0>         0.0915
     55 H17         5.8531    2.1713   -3.7729 H         1 <0>         0.0601
     56 H18         7.8805    7.8879   -5.6555 H         1 <0>         0.0688
     57 H19         6.1391    7.9685   -5.4921 H         1 <0>         0.0630
     58 H20         7.9647    3.0932   -4.3794 H         1 <0>         0.0807
     59 H21         7.0607    3.4497   -5.8523 H         1 <0>         0.0380
     60 H22         5.8545    5.7643   -5.8276 H         1 <0>         0.0484
     61 H23         7.5124    5.7838   -6.4252 H         1 <0>         0.0697
     62 H24         4.7698    4.4250   -2.5496 H         1 <0>         0.0843
     63 H25         2.2959    0.0119    0.1834 H         1 <0>         0.0831
     64 H26         6.8700    9.2469   -2.1701 H         1 <0>         0.0704
     65 H27         5.6795    9.2080   -3.4549 H         1 <0>         0.0718
     66 H28         8.4445    3.0306    2.5915 H         1 <0>         0.0606
     67 H29         6.9275    3.2007    3.4679 H         1 <0>         0.0458
     68 H30         9.0354    5.3625    3.0356 H         1 <0>         0.0375
     69 H31         7.5157    5.6329    3.8824 H         1 <0>         0.0392
     70 H32         7.7210    4.7221    0.9235 H         1 <0>         0.0606
     71 H33         6.2174    4.9831    1.8035 H         1 <0>         0.0579
     72 H34         9.7251    3.6753    4.7403 H         1 <0>         0.0571
     73 H35         8.1937    3.8977    5.5994 H         1 <0>         0.0503
     74 H36         7.0421    2.3587    0.4881 H         1 <0>         0.0993
     75 H37         9.1142    6.7979   -3.6499 H         1 <0>         0.3700
     76 H38         8.8693    7.9327   -2.3437 H         1 <0>         0.3660
     77 H39        10.0430    5.3371    6.4969 H         1 <0>         0.3465
     78 H40         9.1331    6.4373    5.4892 H         1 <0>         0.3446
     79 H41         3.4989    0.9899    2.6717 H         1 <0>         0.3148
     80 H42         4.8120    3.9176   -0.5391 H         1 <0>         0.3220
@<TRIPOS>BOND
     1    1    2 ar
     2    1    3 ar
     3    2    4 ar
     4    3    5 ar
     5    4    6 ar
     6    5    6 ar
     7    6   23 1
     8    7   22 1
     9    7   29 am
    10    7   35 2
    11    8    9 1
    12    8   28 1
    13    8   36 2
    14    9   33 am
    15    9   37 2
    16   10   20 1
    17   10   34 am
    18   10   38 2
    19   11   12 1
    20   11   13 1
    21   12   14 1
    22   13   15 1
    23   14   21 1
    24   15   21 1
    25   16   18 1
    26   16   20 1
    27   17   19 1
    28   17   22 1
    29   18   30 1
    30   19   30 1
    31   20   29 1
    32   21   33 1
    33   22   23 1
    34   22   31 1
    35   24   25 1
    36   24   26 1
    37   25   27 1
    38   26   28 1
    39   27   32 1
    40   28   34 1
    41   29   30 1
    42    1   39 1
    43    2   40 1
    44    3   41 1
    45    4   42 1
    46    5   43 1
    47   11   44 1
    48   11   45 1
    49   12   46 1
    50   12   47 1
    51   13   48 1
    52   13   49 1
    53   14   50 1
    54   14   51 1
    55   15   52 1
    56   15   53 1
    57   16   54 1
    58   16   55 1
    59   17   56 1
    60   17   57 1
    61   18   58 1
    62   18   59 1
    63   19   60 1
    64   19   61 1
    65   20   62 1
    66   21   63 1
    67   23   64 1
    68   23   65 1
    69   24   66 1
    70   24   67 1
    71   25   68 1
    72   25   69 1
    73   26   70 1
    74   26   71 1
    75   27   72 1
    76   27   73 1
    77   28   74 1
    78   31   75 1
    79   31   76 1
    80   32   77 1
    81   32   78 1
    82   33   79 1
    83   34   80 1
@<TRIPOS>MOLECULE
1a46_ligand_364
   80    83     0     0     0
SMALL
USER_CHARGES

mmff94s_NoEstat = 92.34
@<TRIPOS>ATOM
      1 C1         -1.3866   -0.9098   -5.3262 C.ar      1 <0>        -0.1300
      2 C2         -0.7865   -1.2909   -4.1261 C.ar      1 <0>        -0.1323
      3 C3         -0.7738    0.0422   -6.1410 C.ar      1 <0>        -0.1309
      4 C4          0.4264   -0.7199   -3.7407 C.ar      1 <0>        -0.1275
      5 C5          0.4391    0.6133   -5.7556 C.ar      1 <0>        -0.1272
      6 C6          1.0312    0.2285   -4.5579 C.ar      1 <0>        -0.0843
      7 C7          3.4461    2.7409   -2.8804 C.2       1 <0>         0.6709
      8 C8          5.2358    2.3798    1.5634 C.2       1 <0>         0.4867
      9 C9          4.0737    1.7586    0.8450 C.2       1 <0>         0.5883
     10 C10         4.7954    4.5647   -0.6048 C.2       1 <0>         0.6572
     11 C11         0.1833    0.2896    3.5104 C.3       1 <0>        -0.0802
     12 C12         1.4091   -0.6199    3.4998 C.3       1 <0>        -0.0765
     13 C13         0.4030    1.5512    2.6797 C.3       1 <0>        -0.0774
     14 C14         1.8531   -0.9493    2.0740 C.3       1 <0>        -0.0953
     15 C15         0.8490    1.2166    1.2557 C.3       1 <0>        -0.0906
     16 C16         3.8049    6.2915   -2.1287 C.3       1 <0>        -0.0871
     17 C17         1.2717    3.1335   -4.1023 C.3       1 <0>        -0.0716
     18 C18         2.3155    6.0451   -1.8960 C.3       1 <0>         0.1333
     19 C19         1.4367    4.5929   -3.6442 C.3       1 <0>         0.1246
     20 C20         4.4137    4.9104   -2.0113 C.3       1 <0>         0.0606
     21 C21         2.0813    0.3030    1.2170 C.3       1 <0>         0.1012
     22 C22         2.1141    2.1082   -3.3074 C.3       1 <0>         0.1554
     23 C23         2.3358    0.8427   -4.1433 C.3       1 <0>        -0.0356
     24 C24         8.0800    4.9598    0.7851 C.3       1 <0>        -0.0795
     25 C25         8.7880    6.0338    1.6192 C.3       1 <0>        -0.1203
     26 C26         6.9719    4.2276    1.5544 C.3       1 <0>        -0.0920
     27 C27         9.9095    6.7454    0.8629 C.3       1 <0>         0.1502
     28 C28         6.2906    3.1130    0.7514 C.3       1 <0>         0.0224
     29 N1          3.3234    4.0296   -2.3846 N.am      1 <0>        -0.3553
     30 N2          2.0658    4.6585   -2.3264 N.3       1 <0>        -0.4320
     31 N3          1.4316    1.7288   -2.0617 N.3       1 <0>        -0.9031
     32 N4         10.5470    7.7366    1.7233 N.3       1 <0>        -0.9068
     33 N5          3.2649    1.0281    1.6841 N.am      1 <0>        -0.5526
     34 N6          5.7762    3.5917   -0.5046 N.am      1 <0>        -0.5576
     35 O1          4.5174    2.1404   -2.9635 O.2       1 <0>        -0.6710
     36 O2          5.3022    2.1819    2.7699 O.2       1 <0>        -0.4901
     37 O3          3.9822    1.9394   -0.3582 O.2       1 <0>        -0.5902
     38 O4          4.2448    5.1367    0.3286 O.2       1 <0>        -0.5833
     39 H1         -2.3310   -1.3544   -5.6263 H         1 <0>         0.1320
     40 H2         -1.2637   -2.0322   -3.4918 H         1 <0>         0.1324
     41 H3         -1.2413    0.3390   -7.0753 H         1 <0>         0.1328
     42 H4          0.8865   -1.0229   -2.8039 H         1 <0>         0.1324
     43 H5          0.9091    1.3543   -6.3967 H         1 <0>         0.1434
     44 H6         -0.6791   -0.2600    3.1134 H         1 <0>         0.0405
     45 H7         -0.0626    0.5654    4.5421 H         1 <0>         0.0421
     46 H8          2.2298   -0.1338    4.0410 H         1 <0>         0.0362
     47 H9          1.1821   -1.5481    4.0367 H         1 <0>         0.0439
     48 H10        -0.5242    2.1347    2.6460 H         1 <0>         0.0350
     49 H11         1.1568    2.1822    3.1658 H         1 <0>         0.0428
     50 H12         2.7685   -1.5522    2.1121 H         1 <0>         0.0663
     51 H13         1.0834   -1.5703    1.5983 H         1 <0>         0.0466
     52 H14         0.0215    0.7202    0.7329 H         1 <0>         0.0493
     53 H15         1.0533    2.1483    0.7143 H         1 <0>         0.0520
     54 H16         3.9529    6.6727   -3.1467 H         1 <0>         0.0915
     55 H17         4.2210    7.0169   -1.4230 H         1 <0>         0.0601
     56 H18         0.2104    2.8539   -4.0534 H         1 <0>         0.0688
     57 H19         1.5429    3.0844   -5.1656 H         1 <0>         0.0630
     58 H20         2.1000    6.1125   -0.8228 H         1 <0>         0.0807
     59 H21         1.6891    6.7894   -2.3998 H         1 <0>         0.0380
     60 H22         2.0325    5.1365   -4.3904 H         1 <0>         0.0484
     61 H23         0.4495    5.0696   -3.6188 H         1 <0>         0.0697
     62 H24         5.2834    4.7591   -2.6569 H         1 <0>         0.0843
     63 H25         2.2959    0.0119    0.1834 H         1 <0>         0.0831
     64 H26         2.9230    0.1310   -3.5601 H         1 <0>         0.0704
     65 H27         2.9322    1.0978   -5.0213 H         1 <0>         0.0718
     66 H28         7.6494    5.4516   -0.0948 H         1 <0>         0.0606
     67 H29         8.8216    4.2418    0.4157 H         1 <0>         0.0458
     68 H30         8.0356    6.7709    1.9287 H         1 <0>         0.0375
     69 H31         9.1825    5.5824    2.5383 H         1 <0>         0.0392
     70 H32         6.2171    4.9575    1.8728 H         1 <0>         0.0606
     71 H33         7.3929    3.7874    2.4660 H         1 <0>         0.0579
     72 H34         9.5108    7.2416   -0.0285 H         1 <0>         0.0571
     73 H35        10.6706    6.0303    0.5375 H         1 <0>         0.0503
     74 H36         7.0421    2.3587    0.4881 H         1 <0>         0.0993
     75 H37         0.9075    2.4291   -1.5903 H         1 <0>         0.3700
     76 H38         1.6843    0.8646   -1.6413 H         1 <0>         0.3660
     77 H39        11.2163    8.3531    1.3147 H         1 <0>         0.3465
     78 H40        10.4498    7.6340    2.7108 H         1 <0>         0.3446
     79 H41         3.4989    0.9899    2.6717 H         1 <0>         0.3148
     80 H42         6.1527    3.1949   -1.3636 H         1 <0>         0.3220
@<TRIPOS>BOND
     1    1    2 ar
     2    1    3 ar
     3    2    4 ar
     4    3    5 ar
     5    4    6 ar
     6    5    6 ar
     7    6   23 1
     8    7   22 1
     9    7   29 am
    10    7   35 2
    11    8    9 1
    12    8   28 1
    13    8   36 2
    14    9   33 am
    15    9   37 2
    16   10   20 1
    17   10   34 am
    18   10   38 2
    19   11   12 1
    20   11   13 1
    21   12   14 1
    22   13   15 1
    23   14   21 1
    24   15   21 1
    25   16   18 1
    26   16   20 1
    27   17   19 1
    28   17   22 1
    29   18   30 1
    30   19   30 1
    31   20   29 1
    32   21   33 1
    33   22   23 1
    34   22   31 1
    35   24   25 1
    36   24   26 1
    37   25   27 1
    38   26   28 1
    39   27   32 1
    40   28   34 1
    41   29   30 1
    42    1   39 1
    43    2   40 1
    44    3   41 1
    45    4   42 1
    46    5   43 1
    47   11   44 1
    48   11   45 1
    49   12   46 1
    50   12   47 1
    51   13   48 1
    52   13   49 1
    53   14   50 1
    54   14   51 1
    55   15   52 1
    56   15   53 1
    57   16   54 1
    58   16   55 1
    59   17   56 1
    60   17   57 1
    61   18   58 1
    62   18   59 1
    63   19   60 1
    64   19   61 1
    65   20   62 1
    66   21   63 1
    67   23   64 1
    68   23   65 1
    69   24   66 1
    70   24   67 1
    71   25   68 1
    72   25   69 1
    73   26   70 1
    74   26   71 1
    75   27   72 1
    76   27   73 1
    77   28   74 1
    78   31   75 1
    79   31   76 1
    80   32   77 1
    81   32   78 1
    82   33   79 1
    83   34   80 1
@<TRIPOS>MOLECULE
1a46_ligand_365
   80    83     0     0     0
SMALL
USER_CHARGES

mmff94s_NoEstat = 92.45
@<TRIPOS>ATOM
      1 C1          1.7409   12.3935   -1.5361 C.ar      1 <0>        -0.1300
      2 C2          2.2430   11.8090   -0.3734 C.ar      1 <0>        -0.1323
      3 C3          1.4857   11.6057   -2.6586 C.ar      1 <0>        -0.1309
      4 C4          2.4901   10.4368   -0.3331 C.ar      1 <0>        -0.1275
      5 C5          1.7328   10.2334   -2.6183 C.ar      1 <0>        -0.1272
      6 C6          2.2334    9.6580   -1.4559 C.ar      1 <0>        -0.0843
      7 C7          4.2075    6.3518   -1.8158 C.2       1 <0>         0.6709
      8 C8          5.2358    2.3798    1.5634 C.2       1 <0>         0.4867
      9 C9          4.0737    1.7586    0.8450 C.2       1 <0>         0.5883
     10 C10         6.5648    4.1956   -1.4701 C.2       1 <0>         0.6572
     11 C11        -0.1850    3.7169    0.9160 C.3       1 <0>        -0.0802
     12 C12         0.7790    4.4942    0.0236 C.3       1 <0>        -0.0765
     13 C13         0.4665    2.4698    1.5078 C.3       1 <0>        -0.0774
     14 C14         1.3856    3.6021   -1.0605 C.3       1 <0>        -0.0953
     15 C15         1.0741    1.5825    0.4205 C.3       1 <0>        -0.0906
     16 C16         6.7154    4.7360   -3.9137 C.3       1 <0>        -0.0871
     17 C17         4.1811    8.4057   -3.2842 C.3       1 <0>        -0.0716
     18 C18         7.2083    6.1802   -3.8482 C.3       1 <0>         0.1333
     19 C19         5.3192    7.7064   -4.0474 C.3       1 <0>         0.1246
     20 C20         5.8189    4.6139   -2.6998 C.3       1 <0>         0.0606
     21 C21         2.0482    2.3405   -0.4913 C.3       1 <0>         0.1012
     22 C22         3.9302    7.8611   -1.8583 C.3       1 <0>         0.1554
     23 C23         2.4991    8.1819   -1.4126 C.3       1 <0>        -0.0356
     24 C24         6.0158    5.3379    2.0114 C.3       1 <0>        -0.0795
     25 C25         6.7209    6.4716    2.7653 C.3       1 <0>        -0.1203
     26 C26         6.9719    4.2276    1.5544 C.3       1 <0>        -0.0920
     27 C27         5.7742    7.5909    3.1979 C.3       1 <0>         0.1502
     28 C28         6.2906    3.1130    0.7514 C.3       1 <0>         0.0224
     29 N1          5.3643    5.9735   -2.4795 N.am      1 <0>        -0.3553
     30 N2          6.1593    6.9309   -3.1367 N.3       1 <0>        -0.4320
     31 N3          4.8633    8.4685   -0.8981 N.3       1 <0>        -0.9031
     32 N4          6.5168    8.6391    3.8900 N.3       1 <0>        -0.9068
     33 N5          3.2624    2.6947    0.2471 N.am      1 <0>        -0.5526
     34 N6          5.7762    3.5917   -0.5046 N.am      1 <0>        -0.5576
     35 O1          3.4676    5.5621   -1.2293 O.2       1 <0>        -0.6710
     36 O2          5.3022    2.1819    2.7699 O.2       1 <0>        -0.4901
     37 O3          3.9613    0.5442    0.8821 O.2       1 <0>        -0.5902
     38 O4          7.7705    4.4014   -1.3956 O.2       1 <0>        -0.5833
     39 H1          1.5486   13.4619   -1.5674 H         1 <0>         0.1320
     40 H2          2.4416   12.4225    0.5006 H         1 <0>         0.1324
     41 H3          1.0949   12.0609   -3.5639 H         1 <0>         0.1328
     42 H4          2.8813    9.9902    0.5771 H         1 <0>         0.1324
     43 H5          1.5311    9.6276   -3.4978 H         1 <0>         0.1434
     44 H6         -0.5436    4.3646    1.7240 H         1 <0>         0.0405
     45 H7         -1.0643    3.4227    0.3297 H         1 <0>         0.0421
     46 H8          0.2512    5.3330   -0.4444 H         1 <0>         0.0362
     47 H9          1.5781    4.9260    0.6382 H         1 <0>         0.0439
     48 H10         1.2443    2.7672    2.2215 H         1 <0>         0.0350
     49 H11        -0.2795    1.8987    2.0724 H         1 <0>         0.0428
     50 H12         0.5924    3.3037   -1.7579 H         1 <0>         0.0663
     51 H13         2.1147    4.1829   -1.6382 H         1 <0>         0.0466
     52 H14         1.5825    0.7325    0.8917 H         1 <0>         0.0493
     53 H15         0.2632    1.1681   -0.1918 H         1 <0>         0.0520
     54 H16         6.1203    4.5986   -4.8250 H         1 <0>         0.0915
     55 H17         7.5395    4.0162   -3.9259 H         1 <0>         0.0601
     56 H18         4.3839    9.4843   -3.2353 H         1 <0>         0.0688
     57 H19         3.2652    8.3026   -3.8819 H         1 <0>         0.0630
     58 H20         8.1249    6.2239   -3.2478 H         1 <0>         0.0807
     59 H21         7.4504    6.5803   -4.8390 H         1 <0>         0.0380
     60 H22         4.8852    7.0622   -4.8247 H         1 <0>         0.0484
     61 H23         5.9181    8.4662   -4.5637 H         1 <0>         0.0697
     62 H24         4.9753    3.9333   -2.8455 H         1 <0>         0.0843
     63 H25         2.3736    1.6900   -1.3099 H         1 <0>         0.0831
     64 H26         2.3479    7.7977   -0.4022 H         1 <0>         0.0704
     65 H27         1.7988    7.6502   -2.0594 H         1 <0>         0.0718
     66 H28         5.2579    4.9142    2.6804 H         1 <0>         0.0606
     67 H29         5.4809    5.7546    1.1500 H         1 <0>         0.0458
     68 H30         7.2000    6.0392    3.6534 H         1 <0>         0.0375
     69 H31         7.5258    6.8807    2.1417 H         1 <0>         0.0392
     70 H32         7.4599    3.7926    2.4354 H         1 <0>         0.0606
     71 H33         7.7645    4.6634    0.9347 H         1 <0>         0.0579
     72 H34         4.9986    7.1962    3.8630 H         1 <0>         0.0571
     73 H35         5.2784    8.0349    2.3297 H         1 <0>         0.0503
     74 H36         7.0421    2.3587    0.4881 H         1 <0>         0.0993
     75 H37         5.7856    8.6648   -1.2112 H         1 <0>         0.3700
     76 H38         4.6041    8.4681    0.0612 H         1 <0>         0.3660
     77 H39         5.9996    9.3711    4.3277 H         1 <0>         0.3465
     78 H40         7.4997    8.7018    3.7315 H         1 <0>         0.3446
     79 H41         3.5167    3.6752    0.3209 H         1 <0>         0.3148
     80 H42         4.7816    3.4809   -0.6931 H         1 <0>         0.3220
@<TRIPOS>BOND
     1    1    2 ar
     2    1    3 ar
     3    2    4 ar
     4    3    5 ar
     5    4    6 ar
     6    5    6 ar
     7    6   23 1
     8    7   22 1
     9    7   29 am
    10    7   35 2
    11    8    9 1
    12    8   28 1
    13    8   36 2
    14    9   33 am
    15    9   37 2
    16   10   20 1
    17   10   34 am
    18   10   38 2
    19   11   12 1
    20   11   13 1
    21   12   14 1
    22   13   15 1
    23   14   21 1
    24   15   21 1
    25   16   18 1
    26   16   20 1
    27   17   19 1
    28   17   22 1
    29   18   30 1
    30   19   30 1
    31   20   29 1
    32   21   33 1
    33   22   23 1
    34   22   31 1
    35   24   25 1
    36   24   26 1
    37   25   27 1
    38   26   28 1
    39   27   32 1
    40   28   34 1
    41   29   30 1
    42    1   39 1
    43    2   40 1
    44    3   41 1
    45    4   42 1
    46    5   43 1
    47   11   44 1
    48   11   45 1
    49   12   46 1
    50   12   47 1
    51   13   48 1
    52   13   49 1
    53   14   50 1
    54   14   51 1
    55   15   52 1
    56   15   53 1
    57   16   54 1
    58   16   55 1
    59   17   56 1
    60   17   57 1
    61   18   58 1
    62   18   59 1
    63   19   60 1
    64   19   61 1
    65   20   62 1
    66   21   63 1
    67   23   64 1
    68   23   65 1
    69   24   66 1
    70   24   67 1
    71   25   68 1
    72   25   69 1
    73   26   70 1
    74   26   71 1
    75   27   72 1
    76   27   73 1
    77   28   74 1
    78   31   75 1
    79   31   76 1
    80   32   77 1
    81   32   78 1
    82   33   79 1
    83   34   80 1
@<TRIPOS>MOLECULE
1a46_ligand_366
   80    83     0     0     0
SMALL
USER_CHARGES

mmff94s_NoEstat = 92.63
@<TRIPOS>ATOM
      1 C1         -4.4072   -3.0319  -14.4211 C.ar      1 <0>        -0.1300
      2 C2         -3.1014   -2.5683  -14.5810 C.ar      1 <0>        -0.1323
      3 C3         -5.2666   -2.3997  -13.5224 C.ar      1 <0>        -0.1309
      4 C4         -2.6549   -1.4727  -13.8421 C.ar      1 <0>        -0.1275
      5 C5         -4.8200   -1.3041  -12.7835 C.ar      1 <0>        -0.1272
      6 C6         -3.5171   -0.8478  -12.9482 C.ar      1 <0>        -0.0843
      7 C7         -1.9267    1.0916  -10.0042 C.2       1 <0>         0.6709
      8 C8          2.7796    3.2097   -6.1637 C.2       1 <0>         0.4867
      9 C9          2.0233    2.5606   -5.0416 C.2       1 <0>         0.5883
     10 C10         0.2181    1.9581   -7.7739 C.2       1 <0>         0.6572
     11 C11         2.5902    0.7660    0.0253 C.3       1 <0>        -0.0802
     12 C12         2.9560   -0.2487   -1.0542 C.3       1 <0>        -0.0765
     13 C13         1.5499    1.7661   -0.4711 C.3       1 <0>        -0.0774
     14 C14         3.4072    0.4370   -2.3427 C.3       1 <0>        -0.0953
     15 C15         1.9999    2.4546   -1.7585 C.3       1 <0>        -0.0906
     16 C16        -1.6423    1.0361   -6.3687 C.3       1 <0>        -0.0871
     17 C17        -3.4475   -0.9240   -9.9997 C.3       1 <0>        -0.0716
     18 C18        -1.5606   -0.4439   -6.7372 C.3       1 <0>         0.1333
     19 C19        -3.1819   -0.9495   -8.4846 C.3       1 <0>         0.1246
     20 C20        -1.2590    1.7411   -7.6524 C.3       1 <0>         0.0606
     21 C21         2.3546    1.4321   -2.8437 C.3       1 <0>         0.1012
     22 C22        -2.4199   -0.1108  -10.8216 C.3       1 <0>         0.1554
     23 C23        -3.0368    0.3307  -12.1535 C.3       1 <0>        -0.0356
     24 C24         1.4445    5.5921   -8.9731 C.3       1 <0>        -0.0795
     25 C25         1.6370    7.0835   -9.2718 C.3       1 <0>        -0.1203
     26 C26         2.1570    5.1335   -7.6933 C.3       1 <0>        -0.0920
     27 C27         0.9502    7.5360  -10.5601 C.3       1 <0>         0.1502
     28 C28         2.0196    3.6328   -7.4097 C.3       1 <0>         0.0224
     29 N1         -1.6352    0.7917   -8.6825 N.am      1 <0>        -0.3553
     30 N2         -1.8196   -0.5121   -8.1858 N.3       1 <0>        -0.4320
     31 N3         -1.2259   -0.9195  -11.1076 N.3       1 <0>        -0.9031
     32 N4          1.1922    8.9569  -10.7874 N.3       1 <0>        -0.9068
     33 N5          2.8497    2.1219   -4.0334 N.am      1 <0>        -0.5526
     34 N6          0.6426    3.2153   -7.3763 N.am      1 <0>        -0.5576
     35 O1         -1.7935    2.2123  -10.4955 O.2       1 <0>        -0.6710
     36 O2          3.9949    3.2835   -6.0334 O.2       1 <0>        -0.4901
     37 O3          0.8106    2.4734   -5.1444 O.2       1 <0>        -0.5902
     38 O4          0.9290    1.0536   -8.1959 O.2       1 <0>        -0.5833
     39 H1         -4.7549   -3.8850  -14.9963 H         1 <0>         0.1320
     40 H2         -2.4324   -3.0606  -15.2808 H         1 <0>         0.1324
     41 H3         -6.2832   -2.7609  -13.3979 H         1 <0>         0.1328
     42 H4         -1.6358   -1.1186  -13.9733 H         1 <0>         0.1324
     43 H5         -5.4966   -0.8180  -12.0857 H         1 <0>         0.1434
     44 H6          2.2067    0.2429    0.9085 H         1 <0>         0.0405
     45 H7          3.4927    1.3049    0.3391 H         1 <0>         0.0421
     46 H8          3.7531   -0.9055   -0.6878 H         1 <0>         0.0362
     47 H9          2.0885   -0.8860   -1.2657 H         1 <0>         0.0439
     48 H10         0.5995    1.2478   -0.6483 H         1 <0>         0.0350
     49 H11         1.3637    2.5188    0.3033 H         1 <0>         0.0428
     50 H12         4.3590    0.9550   -2.1658 H         1 <0>         0.0663
     51 H13         3.6041   -0.3191   -3.1124 H         1 <0>         0.0466
     52 H14         1.2052    3.1203   -2.1167 H         1 <0>         0.0493
     53 H15         2.8677    3.0930   -1.5464 H         1 <0>         0.0520
     54 H16        -2.6779    1.2865   -6.1074 H         1 <0>         0.0915
     55 H17        -0.9998    1.2887   -5.5196 H         1 <0>         0.0601
     56 H18        -3.4897   -1.9539  -10.3797 H         1 <0>         0.0688
     57 H19        -4.4523   -0.5086  -10.1558 H         1 <0>         0.0630
     58 H20        -0.5419   -0.8072   -6.5560 H         1 <0>         0.0807
     59 H21        -2.2364   -1.0589   -6.1327 H         1 <0>         0.0380
     60 H22        -3.9187   -0.3080   -7.9817 H         1 <0>         0.0484
     61 H23        -3.3442   -1.9688   -8.1140 H         1 <0>         0.0697
     62 H24        -1.7661    2.6997   -7.7936 H         1 <0>         0.0843
     63 H25         1.4523    0.8927   -3.1543 H         1 <0>         0.0831
     64 H26        -2.2923    0.8934  -12.7197 H         1 <0>         0.0704
     65 H27        -3.8625    1.0157  -11.9521 H         1 <0>         0.0718
     66 H28         0.3683    5.4079   -8.8774 H         1 <0>         0.0606
     67 H29         1.7918    5.0040   -9.8306 H         1 <0>         0.0458
     68 H30         1.2300    7.6523   -8.4256 H         1 <0>         0.0375
     69 H31         2.7093    7.3123   -9.3176 H         1 <0>         0.0392
     70 H32         1.7604    5.7005   -6.8419 H         1 <0>         0.0606
     71 H33         3.2243    5.3739   -7.7660 H         1 <0>         0.0579
     72 H34        -0.1287    7.3572  -10.4981 H         1 <0>         0.0571
     73 H35         1.3345    6.9786  -11.4193 H         1 <0>         0.0503
     74 H36         2.4714    3.0747   -8.2388 H         1 <0>         0.0993
     75 H37        -0.9249   -1.5612  -10.4112 H         1 <0>         0.3700
     76 H38        -0.6609   -0.6518  -11.8799 H         1 <0>         0.3660
     77 H39         0.7014    9.4044  -11.5317 H         1 <0>         0.3465
     78 H40         1.9755    9.3785  -10.3359 H         1 <0>         0.3446
     79 H41         3.8486    2.2844   -4.1196 H         1 <0>         0.3148
     80 H42        -0.0552    3.8781   -7.0434 H         1 <0>         0.3220
@<TRIPOS>BOND
     1    1    2 ar
     2    1    3 ar
     3    2    4 ar
     4    3    5 ar
     5    4    6 ar
     6    5    6 ar
     7    6   23 1
     8    7   22 1
     9    7   29 am
    10    7   35 2
    11    8    9 1
    12    8   28 1
    13    8   36 2
    14    9   33 am
    15    9   37 2
    16   10   20 1
    17   10   34 am
    18   10   38 2
    19   11   12 1
    20   11   13 1
    21   12   14 1
    22   13   15 1
    23   14   21 1
    24   15   21 1
    25   16   18 1
    26   16   20 1
    27   17   19 1
    28   17   22 1
    29   18   30 1
    30   19   30 1
    31   20   29 1
    32   21   33 1
    33   22   23 1
    34   22   31 1
    35   24   25 1
    36   24   26 1
    37   25   27 1
    38   26   28 1
    39   27   32 1
    40   28   34 1
    41   29   30 1
    42    1   39 1
    43    2   40 1
    44    3   41 1
    45    4   42 1
    46    5   43 1
    47   11   44 1
    48   11   45 1
    49   12   46 1
    50   12   47 1
    51   13   48 1
    52   13   49 1
    53   14   50 1
    54   14   51 1
    55   15   52 1
    56   15   53 1
    57   16   54 1
    58   16   55 1
    59   17   56 1
    60   17   57 1
    61   18   58 1
    62   18   59 1
    63   19   60 1
    64   19   61 1
    65   20   62 1
    66   21   63 1
    67   23   64 1
    68   23   65 1
    69   24   66 1
    70   24   67 1
    71   25   68 1
    72   25   69 1
    73   26   70 1
    74   26   71 1
    75   27   72 1
    76   27   73 1
    77   28   74 1
    78   31   75 1
    79   31   76 1
    80   32   77 1
    81   32   78 1
    82   33   79 1
    83   34   80 1
@<TRIPOS>MOLECULE
1a46_ligand_367
   80    83     0     0     0
SMALL
USER_CHARGES

mmff94s_NoEstat = 92.67
@<TRIPOS>ATOM
      1 C1         -4.6917   -3.0051  -14.5357 C.ar      1 <0>        -0.1300
      2 C2         -3.4233   -2.4813  -14.7856 C.ar      1 <0>        -0.1323
      3 C3         -5.5209   -2.4030  -13.5893 C.ar      1 <0>        -0.1309
      4 C4         -2.9840   -1.3555  -14.0891 C.ar      1 <0>        -0.1275
      5 C5         -5.0816   -1.2772  -12.8927 C.ar      1 <0>        -0.1272
      6 C6         -3.8160   -0.7608  -13.1471 C.ar      1 <0>        -0.0843
      7 C7         -2.1349    1.2928  -10.3339 C.2       1 <0>         0.6709
      8 C8          2.7796    3.2097   -6.1637 C.2       1 <0>         0.4867
      9 C9          2.0233    2.5606   -5.0416 C.2       1 <0>         0.5883
     10 C10         0.1051    2.2921   -8.2580 C.2       1 <0>         0.6572
     11 C11         2.5902    0.7660    0.0253 C.3       1 <0>        -0.0802
     12 C12         2.9560   -0.2487   -1.0542 C.3       1 <0>        -0.0765
     13 C13         1.5499    1.7661   -0.4711 C.3       1 <0>        -0.0774
     14 C14         3.4072    0.4370   -2.3427 C.3       1 <0>        -0.0953
     15 C15         1.9999    2.4546   -1.7585 C.3       1 <0>        -0.0906
     16 C16        -1.6127    1.3005   -6.7245 C.3       1 <0>        -0.0871
     17 C17        -3.5515   -0.7936  -10.2088 C.3       1 <0>        -0.0716
     18 C18        -1.4826   -0.1787   -7.0821 C.3       1 <0>         0.1333
     19 C19        -3.1872   -0.7856   -8.7142 C.3       1 <0>         0.1246
     20 C20        -1.3485    2.0056   -8.0379 C.3       1 <0>         0.0606
     21 C21         2.3546    1.4321   -2.8437 C.3       1 <0>         0.1012
     22 C22        -2.6206    0.0571  -11.1047 C.3       1 <0>         0.1554
     23 C23        -3.3435    0.4502  -12.3978 C.3       1 <0>        -0.0356
     24 C24         1.5857    6.0302   -6.5865 C.3       1 <0>        -0.0795
     25 C25         1.6811    7.5259   -6.9095 C.3       1 <0>        -0.1203
     26 C26         2.1570    5.1335   -7.6933 C.3       1 <0>        -0.0920
     27 C27         1.0885    8.4192   -5.8200 C.3       1 <0>         0.1502
     28 C28         2.0196    3.6328   -7.4097 C.3       1 <0>         0.0224
     29 N1         -1.7438    1.0253   -9.0311 N.am      1 <0>        -0.3553
     30 N2         -1.8314   -0.2790   -8.5099 N.3       1 <0>        -0.4320
     31 N3         -1.4094   -0.6969  -11.4599 N.3       1 <0>        -0.9031
     32 N4          1.8018    8.2205   -4.5627 N.3       1 <0>        -0.9068
     33 N5          2.8497    2.1219   -4.0334 N.am      1 <0>        -0.5526
     34 N6          0.6426    3.2153   -7.3763 N.am      1 <0>        -0.5576
     35 O1         -2.0889    2.4118  -10.8445 O.2       1 <0>        -0.6710
     36 O2          3.9949    3.2835   -6.0334 O.2       1 <0>        -0.4901
     37 O3          0.8106    2.4734   -5.1444 O.2       1 <0>        -0.5902
     38 O4          0.7038    1.7190   -9.1607 O.2       1 <0>        -0.5833
     39 H1         -5.0337   -3.8817  -15.0780 H         1 <0>         0.1320
     40 H2         -2.7778   -2.9502  -15.5226 H         1 <0>         0.1324
     41 H3         -6.5084   -2.8111  -13.3947 H         1 <0>         0.1328
     42 H4         -1.9943   -0.9544  -14.2904 H         1 <0>         0.1324
     43 H5         -5.7344   -0.8149  -12.1571 H         1 <0>         0.1434
     44 H6          2.2067    0.2429    0.9085 H         1 <0>         0.0405
     45 H7          3.4927    1.3049    0.3391 H         1 <0>         0.0421
     46 H8          3.7531   -0.9055   -0.6878 H         1 <0>         0.0362
     47 H9          2.0885   -0.8860   -1.2657 H         1 <0>         0.0439
     48 H10         0.5995    1.2478   -0.6483 H         1 <0>         0.0350
     49 H11         1.3637    2.5188    0.3033 H         1 <0>         0.0428
     50 H12         4.3590    0.9550   -2.1658 H         1 <0>         0.0663
     51 H13         3.6041   -0.3191   -3.1124 H         1 <0>         0.0466
     52 H14         1.2052    3.1203   -2.1167 H         1 <0>         0.0493
     53 H15         2.8677    3.0930   -1.5464 H         1 <0>         0.0520
     54 H16        -2.6402    1.5041   -6.3986 H         1 <0>         0.0915
     55 H17        -0.9296    1.5953   -5.9220 H         1 <0>         0.0601
     56 H18        -3.5677   -1.8293  -10.5746 H         1 <0>         0.0688
     57 H19        -4.5835   -0.4292  -10.3032 H         1 <0>         0.0630
     58 H20        -0.4377   -0.4900   -6.9643 H         1 <0>         0.0807
     59 H21        -2.0868   -0.8173   -6.4283 H         1 <0>         0.0380
     60 H22        -3.9204   -0.1736   -8.1708 H         1 <0>         0.0484
     61 H23        -3.2749   -1.8064   -8.3232 H         1 <0>         0.0697
     62 H24        -1.9101    2.9367   -8.1555 H         1 <0>         0.0843
     63 H25         1.4523    0.8927   -3.1543 H         1 <0>         0.0831
     64 H26        -2.6659    1.0404  -13.0174 H         1 <0>         0.0704
     65 H27        -4.1870    1.0971  -12.1499 H         1 <0>         0.0718
     66 H28         2.1358    5.8550   -5.6547 H         1 <0>         0.0606
     67 H29         0.5392    5.7688   -6.3906 H         1 <0>         0.0458
     68 H30         2.7419    7.7748   -7.0444 H         1 <0>         0.0375
     69 H31         1.1870    7.7255   -7.8687 H         1 <0>         0.0392
     70 H32         3.2164    5.3787   -7.8393 H         1 <0>         0.0606
     71 H33         1.6466    5.3535   -8.6384 H         1 <0>         0.0579
     72 H34         0.0275    8.1885   -5.6755 H         1 <0>         0.0571
     73 H35         1.1682    9.4739   -6.0992 H         1 <0>         0.0503
     74 H36         2.4714    3.0747   -8.2388 H         1 <0>         0.0993
     75 H37        -1.0328   -1.3138  -10.7781 H         1 <0>         0.3700
     76 H38        -0.9095   -0.4127  -12.2703 H         1 <0>         0.3660
     77 H39         1.4387    8.6562   -3.7421 H         1 <0>         0.3465
     78 H40         2.7216    7.8360   -4.5996 H         1 <0>         0.3446
     79 H41         3.8486    2.2844   -4.1196 H         1 <0>         0.3148
     80 H42         0.0323    3.6193   -6.6682 H         1 <0>         0.3220
@<TRIPOS>BOND
     1    1    2 ar
     2    1    3 ar
     3    2    4 ar
     4    3    5 ar
     5    4    6 ar
     6    5    6 ar
     7    6   23 1
     8    7   22 1
     9    7   29 am
    10    7   35 2
    11    8    9 1
    12    8   28 1
    13    8   36 2
    14    9   33 am
    15    9   37 2
    16   10   20 1
    17   10   34 am
    18   10   38 2
    19   11   12 1
    20   11   13 1
    21   12   14 1
    22   13   15 1
    23   14   21 1
    24   15   21 1
    25   16   18 1
    26   16   20 1
    27   17   19 1
    28   17   22 1
    29   18   30 1
    30   19   30 1
    31   20   29 1
    32   21   33 1
    33   22   23 1
    34   22   31 1
    35   24   25 1
    36   24   26 1
    37   25   27 1
    38   26   28 1
    39   27   32 1
    40   28   34 1
    41   29   30 1
    42    1   39 1
    43    2   40 1
    44    3   41 1
    45    4   42 1
    46    5   43 1
    47   11   44 1
    48   11   45 1
    49   12   46 1
    50   12   47 1
    51   13   48 1
    52   13   49 1
    53   14   50 1
    54   14   51 1
    55   15   52 1
    56   15   53 1
    57   16   54 1
    58   16   55 1
    59   17   56 1
    60   17   57 1
    61   18   58 1
    62   18   59 1
    63   19   60 1
    64   19   61 1
    65   20   62 1
    66   21   63 1
    67   23   64 1
    68   23   65 1
    69   24   66 1
    70   24   67 1
    71   25   68 1
    72   25   69 1
    73   26   70 1
    74   26   71 1
    75   27   72 1
    76   27   73 1
    77   28   74 1
    78   31   75 1
    79   31   76 1
    80   32   77 1
    81   32   78 1
    82   33   79 1
    83   34   80 1
@<TRIPOS>MOLECULE
1a46_ligand_368
   80    83     0     0     0
SMALL
USER_CHARGES

mmff94s_NoEstat = 92.78
@<TRIPOS>ATOM
      1 C1          8.7841   12.3584   -5.8200 C.ar      1 <0>        -0.1300
      2 C2          9.2413   12.0197   -4.5466 C.ar      1 <0>        -0.1323
      3 C3          7.6186   11.7776   -6.3200 C.ar      1 <0>        -0.1309
      4 C4          8.5332   11.1000   -3.7731 C.ar      1 <0>        -0.1275
      5 C5          6.9105   10.8578   -5.5465 C.ar      1 <0>        -0.1272
      6 C6          7.3724   10.5251   -4.2781 C.ar      1 <0>        -0.0843
      7 C7          6.3227    7.0882   -2.8484 C.2       1 <0>         0.6709
      8 C8          5.2358    2.3798    1.5634 C.2       1 <0>         0.4867
      9 C9          3.8230    2.3549    1.0577 C.2       1 <0>         0.5883
     10 C10         6.5648    4.1956   -1.4701 C.2       1 <0>         0.6572
     11 C11         2.0339    5.7026   -1.6933 C.3       1 <0>        -0.0802
     12 C12         2.4002    4.2285   -1.8440 C.3       1 <0>        -0.0765
     13 C13         2.2479    6.1996   -0.2660 C.3       1 <0>        -0.0774
     14 C14         1.6642    3.3587   -0.8239 C.3       1 <0>        -0.0953
     15 C15         1.5126    5.3252    0.7505 C.3       1 <0>        -0.0906
     16 C16         5.9150    3.5956   -3.8160 C.3       1 <0>        -0.0871
     17 C17         6.9686    7.7509   -5.1976 C.3       1 <0>        -0.0716
     18 C18         7.1782    4.0100   -4.5681 C.3       1 <0>         0.1333
     19 C19         6.8896    6.2440   -5.4973 C.3       1 <0>         0.1246
     20 C20         5.8189    4.6139   -2.6998 C.3       1 <0>         0.0606
     21 C21         1.8637    3.8371    0.6204 C.3       1 <0>         0.1012
     22 C22         7.0990    8.1048   -3.6974 C.3       1 <0>         0.1554
     23 C23         6.6107    9.5357   -3.4460 C.3       1 <0>        -0.0356
     24 C24         6.0158    5.3379    2.0114 C.3       1 <0>        -0.0795
     25 C25         6.7209    6.4716    2.7653 C.3       1 <0>        -0.1203
     26 C26         6.9719    4.2276    1.5544 C.3       1 <0>        -0.0920
     27 C27         5.7742    7.5909    3.1979 C.3       1 <0>         0.1502
     28 C28         6.2906    3.1130    0.7514 C.3       1 <0>         0.0224
     29 N1          6.5058    5.7713   -3.2406 N.am      1 <0>        -0.3553
     30 N2          7.3227    5.4587   -4.3431 N.3       1 <0>        -0.4320
     31 N3          8.4993    8.0079   -3.2602 N.3       1 <0>        -0.9031
     32 N4          6.5168    8.6391    3.8900 N.3       1 <0>        -0.9068
     33 N5          3.2455    3.6032    1.0456 N.am      1 <0>        -0.5526
     34 N6          5.7762    3.5917   -0.5046 N.am      1 <0>        -0.5576
     35 O1          5.6162    7.4259   -1.8987 O.2       1 <0>        -0.6710
     36 O2          5.4669    1.7271    2.5732 O.2       1 <0>        -0.4901
     37 O3          3.3466    1.2762    0.7444 O.2       1 <0>        -0.5902
     38 O4          7.7705    4.4014   -1.3956 O.2       1 <0>        -0.5833
     39 H1          9.3355   13.0745   -6.4223 H         1 <0>         0.1320
     40 H2         10.1488   12.4721   -4.1574 H         1 <0>         0.1324
     41 H3          7.2628   12.0413   -7.3117 H         1 <0>         0.1328
     42 H4          8.8970   10.8421   -2.7820 H         1 <0>         0.1324
     43 H5          6.0035   10.4103   -5.9443 H         1 <0>         0.1434
     44 H6          2.6319    6.3043   -2.3871 H         1 <0>         0.0405
     45 H7          0.9827    5.8451   -1.9728 H         1 <0>         0.0421
     46 H8          2.1562    3.8911   -2.8579 H         1 <0>         0.0362
     47 H9          3.4833    4.1069   -1.7218 H         1 <0>         0.0439
     48 H10         3.3208    6.2097   -0.0393 H         1 <0>         0.0350
     49 H11         1.8967    7.2345   -0.1812 H         1 <0>         0.0428
     50 H12         0.5919    3.3700   -1.0576 H         1 <0>         0.0663
     51 H13         2.0009    2.3201   -0.9270 H         1 <0>         0.0466
     52 H14         1.7416    5.6797    1.7629 H         1 <0>         0.0493
     53 H15         0.4316    5.4494    0.6074 H         1 <0>         0.0520
     54 H16         5.0489    3.6975   -4.4816 H         1 <0>         0.0915
     55 H17         5.9620    2.5605   -3.4641 H         1 <0>         0.0601
     56 H18         7.8089    8.1894   -5.7531 H         1 <0>         0.0688
     57 H19         6.0643    8.2210   -5.6074 H         1 <0>         0.0630
     58 H20         8.0462    3.5082   -4.1236 H         1 <0>         0.0807
     59 H21         7.1438    3.7229   -5.6248 H         1 <0>         0.0380
     60 H22         5.8587    5.9894   -5.7800 H         1 <0>         0.0484
     61 H23         7.5203    6.0225   -6.3666 H         1 <0>         0.0697
     62 H24         4.7909    4.8594   -2.4187 H         1 <0>         0.0843
     63 H25         1.2373    3.2469    1.2973 H         1 <0>         0.0831
     64 H26         6.7207    9.7666   -2.3849 H         1 <0>         0.0704
     65 H27         5.5439    9.5911   -3.6710 H         1 <0>         0.0718
     66 H28         5.2579    4.9142    2.6804 H         1 <0>         0.0606
     67 H29         5.4809    5.7546    1.1500 H         1 <0>         0.0458
     68 H30         7.2000    6.0392    3.6534 H         1 <0>         0.0375
     69 H31         7.5258    6.8807    2.1417 H         1 <0>         0.0392
     70 H32         7.4599    3.7926    2.4354 H         1 <0>         0.0606
     71 H33         7.7645    4.6634    0.9347 H         1 <0>         0.0579
     72 H34         4.9986    7.1962    3.8630 H         1 <0>         0.0571
     73 H35         5.2784    8.0349    2.3297 H         1 <0>         0.0503
     74 H36         7.0421    2.3587    0.4881 H         1 <0>         0.0993
     75 H37         9.0611    7.2946   -3.6639 H         1 <0>         0.3700
     76 H38         8.7654    8.5137   -2.4473 H         1 <0>         0.3660
     77 H39         5.9996    9.3711    4.3277 H         1 <0>         0.3465
     78 H40         7.4997    8.7018    3.7315 H         1 <0>         0.3446
     79 H41         3.8022    4.3983    1.3448 H         1 <0>         0.3148
     80 H42         4.7816    3.4809   -0.6931 H         1 <0>         0.3220
@<TRIPOS>BOND
     1    1    2 ar
     2    1    3 ar
     3    2    4 ar
     4    3    5 ar
     5    4    6 ar
     6    5    6 ar
     7    6   23 1
     8    7   22 1
     9    7   29 am
    10    7   35 2
    11    8    9 1
    12    8   28 1
    13    8   36 2
    14    9   33 am
    15    9   37 2
    16   10   20 1
    17   10   34 am
    18   10   38 2
    19   11   12 1
    20   11   13 1
    21   12   14 1
    22   13   15 1
    23   14   21 1
    24   15   21 1
    25   16   18 1
    26   16   20 1
    27   17   19 1
    28   17   22 1
    29   18   30 1
    30   19   30 1
    31   20   29 1
    32   21   33 1
    33   22   23 1
    34   22   31 1
    35   24   25 1
    36   24   26 1
    37   25   27 1
    38   26   28 1
    39   27   32 1
    40   28   34 1
    41   29   30 1
    42    1   39 1
    43    2   40 1
    44    3   41 1
    45    4   42 1
    46    5   43 1
    47   11   44 1
    48   11   45 1
    49   12   46 1
    50   12   47 1
    51   13   48 1
    52   13   49 1
    53   14   50 1
    54   14   51 1
    55   15   52 1
    56   15   53 1
    57   16   54 1
    58   16   55 1
    59   17   56 1
    60   17   57 1
    61   18   58 1
    62   18   59 1
    63   19   60 1
    64   19   61 1
    65   20   62 1
    66   21   63 1
    67   23   64 1
    68   23   65 1
    69   24   66 1
    70   24   67 1
    71   25   68 1
    72   25   69 1
    73   26   70 1
    74   26   71 1
    75   27   72 1
    76   27   73 1
    77   28   74 1
    78   31   75 1
    79   31   76 1
    80   32   77 1
    81   32   78 1
    82   33   79 1
    83   34   80 1
@<TRIPOS>MOLECULE
1a46_ligand_369
   80    83     0     0     0
SMALL
USER_CHARGES

mmff94s_NoEstat = 92.96
@<TRIPOS>ATOM
      1 C1         11.0121    9.2104   -7.9325 C.ar      1 <0>        -0.1300
      2 C2         11.5385    8.8832   -6.6829 C.ar      1 <0>        -0.1323
      3 C3          9.6345    9.1559   -8.1449 C.ar      1 <0>        -0.1309
      4 C4         10.6874    8.5015   -5.6458 C.ar      1 <0>        -0.1275
      5 C5          8.7834    8.7742   -7.1078 C.ar      1 <0>        -0.1272
      6 C6          9.3154    8.4495   -5.8650 C.ar      1 <0>        -0.0843
      7 C7          7.2411    6.0968   -3.6024 C.2       1 <0>         0.6709
      8 C8          5.2358    2.3798    1.5634 C.2       1 <0>         0.4867
      9 C9          5.6522    1.1980    2.3894 C.2       1 <0>         0.5883
     10 C10         6.5256    3.6321   -1.6689 C.2       1 <0>         0.6572
     11 C11         9.7158   -1.2429    1.0016 C.3       1 <0>        -0.0802
     12 C12         8.2405   -1.5331    0.7382 C.3       1 <0>        -0.0765
     13 C13         9.9090    0.0370    1.8104 C.3       1 <0>        -0.0774
     14 C14         7.4308   -1.5537    2.0353 C.3       1 <0>        -0.0953
     15 C15         9.0955    0.0125    3.1053 C.3       1 <0>        -0.0906
     16 C16         5.2113    3.0694   -3.7284 C.3       1 <0>        -0.0871
     17 C17         7.6012    6.0599   -6.1012 C.3       1 <0>        -0.0716
     18 C18         6.3446    2.7580   -4.7039 C.3       1 <0>         0.1333
     19 C19         6.8355    4.7264   -6.0536 C.3       1 <0>         0.1246
     20 C20         5.7868    4.1659   -2.8575 C.3       1 <0>         0.0606
     21 C21         7.6074   -0.2769    2.8680 C.3       1 <0>         0.1012
     22 C22         8.1773    6.5224   -4.7422 C.3       1 <0>         0.1554
     23 C23         8.4000    8.0389   -4.7494 C.3       1 <0>        -0.0356
     24 C24         8.0800    4.9598    0.7851 C.3       1 <0>        -0.0795
     25 C25         8.7880    6.0338    1.6192 C.3       1 <0>        -0.1203
     26 C26         6.9719    4.2276    1.5544 C.3       1 <0>        -0.0920
     27 C27         9.9095    6.7454    0.8629 C.3       1 <0>         0.1502
     28 C28         6.2906    3.1130    0.7514 C.3       1 <0>         0.0224
     29 N1          6.7674    4.7991   -3.7183 N.am      1 <0>        -0.3553
     30 N2          7.1280    4.0001   -4.8193 N.3       1 <0>        -0.4320
     31 N3          9.4643    5.8648   -4.4722 N.3       1 <0>        -0.9031
     32 N4         10.5470    7.7366    1.7233 N.3       1 <0>        -0.9068
     33 N5          6.9710    0.8584    2.1962 N.am      1 <0>        -0.5526
     34 N6          5.7762    3.5917   -0.5046 N.am      1 <0>        -0.5576
     35 O1          6.9567    6.8465   -2.6685 O.2       1 <0>        -0.6710
     36 O2          4.0675    2.7325    1.6631 O.2       1 <0>        -0.4901
     37 O3          4.8107    0.6708    3.0985 O.2       1 <0>        -0.5902
     38 O4          7.6924    3.2783   -1.7917 O.2       1 <0>        -0.5833
     39 H1         11.6747    9.5075   -8.7400 H         1 <0>         0.1320
     40 H2         12.6111    8.9257   -6.5176 H         1 <0>         0.1324
     41 H3          9.2248    9.4105   -9.1180 H         1 <0>         0.1328
     42 H4         11.1066    8.2484   -4.6756 H         1 <0>         0.1324
     43 H5          7.7115    8.7346   -7.2826 H         1 <0>         0.1434
     44 H6         10.1593   -2.0859    1.5458 H         1 <0>         0.0405
     45 H7         10.2516   -1.1619    0.0491 H         1 <0>         0.0421
     46 H8          7.8341   -0.7738    0.0592 H         1 <0>         0.0362
     47 H9          8.1416   -2.4986    0.2289 H         1 <0>         0.0439
     48 H10        10.9714    0.1649    2.0472 H         1 <0>         0.0350
     49 H11         9.6136    0.9012    1.2032 H         1 <0>         0.0428
     50 H12         6.3711   -1.7044    1.7959 H         1 <0>         0.0663
     51 H13         7.7466   -2.4163    2.6358 H         1 <0>         0.0466
     52 H14         9.5071   -0.7601    3.7673 H         1 <0>         0.0493
     53 H15         9.2152    0.9716    3.6236 H         1 <0>         0.0520
     54 H16         4.3507    3.4578   -4.2870 H         1 <0>         0.0915
     55 H17         4.8908    2.1856   -3.1683 H         1 <0>         0.0601
     56 H18         8.4120    5.9885   -6.8390 H         1 <0>         0.0688
     57 H19         6.9149    6.8257   -6.4876 H         1 <0>         0.0630
     58 H20         6.9926    1.9855   -4.2725 H         1 <0>         0.0807
     59 H21         5.9735    2.3729   -5.6602 H         1 <0>         0.0380
     60 H22         5.7592    4.9288   -6.1435 H         1 <0>         0.0484
     61 H23         7.1185    4.1245   -6.9255 H         1 <0>         0.0697
     62 H24         5.0406    4.8864   -2.5107 H         1 <0>         0.0843
     63 H25         7.0921   -0.3851    3.8281 H         1 <0>         0.0831
     64 H26         8.8151    8.3408   -3.7861 H         1 <0>         0.0704
     65 H27         7.4343    8.5386   -4.8464 H         1 <0>         0.0718
     66 H28         7.6494    5.4516   -0.0948 H         1 <0>         0.0606
     67 H29         8.8216    4.2418    0.4157 H         1 <0>         0.0458
     68 H30         8.0356    6.7709    1.9287 H         1 <0>         0.0375
     69 H31         9.1825    5.5824    2.5383 H         1 <0>         0.0392
     70 H32         6.2171    4.9575    1.8728 H         1 <0>         0.0606
     71 H33         7.3929    3.7874    2.4660 H         1 <0>         0.0579
     72 H34         9.5108    7.2416   -0.0285 H         1 <0>         0.0571
     73 H35        10.6706    6.0303    0.5375 H         1 <0>         0.0503
     74 H36         7.0421    2.3587    0.4881 H         1 <0>         0.0993
     75 H37         9.5764    4.9261   -4.7778 H         1 <0>         0.3700
     76 H38        10.0811    6.3037   -3.8286 H         1 <0>         0.3660
     77 H39        11.2163    8.3531    1.3147 H         1 <0>         0.3465
     78 H40        10.4498    7.6340    2.7108 H         1 <0>         0.3446
     79 H41         7.5283    1.4199    1.5594 H         1 <0>         0.3148
     80 H42         4.8120    3.9176   -0.5391 H         1 <0>         0.3220
@<TRIPOS>BOND
     1    1    2 ar
     2    1    3 ar
     3    2    4 ar
     4    3    5 ar
     5    4    6 ar
     6    5    6 ar
     7    6   23 1
     8    7   22 1
     9    7   29 am
    10    7   35 2
    11    8    9 1
    12    8   28 1
    13    8   36 2
    14    9   33 am
    15    9   37 2
    16   10   20 1
    17   10   34 am
    18   10   38 2
    19   11   12 1
    20   11   13 1
    21   12   14 1
    22   13   15 1
    23   14   21 1
    24   15   21 1
    25   16   18 1
    26   16   20 1
    27   17   19 1
    28   17   22 1
    29   18   30 1
    30   19   30 1
    31   20   29 1
    32   21   33 1
    33   22   23 1
    34   22   31 1
    35   24   25 1
    36   24   26 1
    37   25   27 1
    38   26   28 1
    39   27   32 1
    40   28   34 1
    41   29   30 1
    42    1   39 1
    43    2   40 1
    44    3   41 1
    45    4   42 1
    46    5   43 1
    47   11   44 1
    48   11   45 1
    49   12   46 1
    50   12   47 1
    51   13   48 1
    52   13   49 1
    53   14   50 1
    54   14   51 1
    55   15   52 1
    56   15   53 1
    57   16   54 1
    58   16   55 1
    59   17   56 1
    60   17   57 1
    61   18   58 1
    62   18   59 1
    63   19   60 1
    64   19   61 1
    65   20   62 1
    66   21   63 1
    67   23   64 1
    68   23   65 1
    69   24   66 1
    70   24   67 1
    71   25   68 1
    72   25   69 1
    73   26   70 1
    74   26   71 1
    75   27   72 1
    76   27   73 1
    77   28   74 1
    78   31   75 1
    79   31   76 1
    80   32   77 1
    81   32   78 1
    82   33   79 1
    83   34   80 1
@<TRIPOS>MOLECULE
1a46_ligand_370
   80    83     0     0     0
SMALL
USER_CHARGES

mmff94s_NoEstat = 92.99
@<TRIPOS>ATOM
      1 C1         -7.1732    5.1663  -14.6915 C.ar      1 <0>        -0.1300
      2 C2         -5.9354    5.8086  -14.7170 C.ar      1 <0>        -0.1323
      3 C3         -7.6444    4.6069  -13.5037 C.ar      1 <0>        -0.1309
      4 C4         -5.1685    5.8915  -13.5548 C.ar      1 <0>        -0.1275
      5 C5         -6.8775    4.6898  -12.3415 C.ar      1 <0>        -0.1272
      6 C6         -5.6446    5.3316  -12.3746 C.ar      1 <0>        -0.0843
      7 C7         -3.0329    4.3040   -9.7137 C.2       1 <0>         0.6709
      8 C8          2.7796    3.2097   -6.1637 C.2       1 <0>         0.4867
      9 C9          2.2829    2.0299   -5.3801 C.2       1 <0>         0.5883
     10 C10        -0.2306    3.3845   -8.4382 C.2       1 <0>         0.6572
     11 C11         1.5839   -3.3211   -5.6849 C.3       1 <0>        -0.0802
     12 C12         2.3480   -2.5670   -4.6002 C.3       1 <0>        -0.0765
     13 C13         0.4244   -2.4952   -6.2347 C.3       1 <0>        -0.0774
     14 C14         2.8173   -1.1982   -5.0901 C.3       1 <0>        -0.0953
     15 C15         0.8909   -1.1259   -6.7260 C.3       1 <0>        -0.0906
     16 C16        -1.6648    1.3674   -8.0386 C.3       1 <0>        -0.0871
     17 C17        -4.6909    2.9009  -11.0011 C.3       1 <0>        -0.0716
     18 C18        -1.8612    0.8785   -9.4723 C.3       1 <0>         0.1333
     19 C19        -3.9819    1.7050  -10.3424 C.3       1 <0>         0.1246
     20 C20        -1.6152    2.8736   -8.1831 C.3       1 <0>         0.0606
     21 C21         1.6479   -0.3676   -5.6301 C.3       1 <0>         0.1012
     22 C22        -3.8794    4.2177  -10.9915 C.3       1 <0>         0.1554
     23 C23        -4.8198    5.4208  -11.1245 C.3       1 <0>        -0.0356
     24 C24         3.6080    5.6033   -7.8654 C.3       1 <0>        -0.0795
     25 C25         3.7321    7.1143   -8.0937 C.3       1 <0>        -0.1203
     26 C26         2.1570    5.1335   -7.6933 C.3       1 <0>        -0.0920
     27 C27         5.1782    7.5875   -8.2387 C.3       1 <0>         0.1502
     28 C28         2.0196    3.6328   -7.4097 C.3       1 <0>         0.0224
     29 N1         -2.3880    3.1216   -9.3852 N.am      1 <0>        -0.3553
     30 N2         -2.5540    1.9705  -10.1777 N.3       1 <0>        -0.4320
     31 N3         -2.9247    4.2482  -12.1092 N.3       1 <0>        -0.9031
     32 N4          5.8065    6.9420   -9.3866 N.3       1 <0>        -0.9068
     33 N5          2.1424    0.9032   -6.1564 N.am      1 <0>        -0.5526
     34 N6          0.6426    3.2153   -7.3763 N.am      1 <0>        -0.5576
     35 O1         -2.9337    5.3408   -9.0578 O.2       1 <0>        -0.6710
     36 O2          3.8302    3.7133   -5.7870 O.2       1 <0>        -0.4901
     37 O3          2.0451    2.1901   -4.1942 O.2       1 <0>        -0.5902
     38 O4          0.0350    3.8958   -9.5198 O.2       1 <0>        -0.5833
     39 H1         -7.7703    5.1016  -15.5965 H         1 <0>         0.1320
     40 H2         -5.5686    6.2441  -15.6419 H         1 <0>         0.1324
     41 H3         -8.6082    4.1066  -13.4840 H         1 <0>         0.1328
     42 H4         -4.2053    6.3939  -13.5842 H         1 <0>         0.1324
     43 H5         -7.2527    4.2510  -11.4207 H         1 <0>         0.1434
     44 H6          2.2693   -3.5764   -6.5027 H         1 <0>         0.0405
     45 H7          1.2041   -4.2657   -5.2793 H         1 <0>         0.0421
     46 H8          1.7035   -2.4385   -3.7218 H         1 <0>         0.0362
     47 H9          3.2121   -3.1592   -4.2788 H         1 <0>         0.0439
     48 H10        -0.0574   -3.0370   -7.0564 H         1 <0>         0.0350
     49 H11        -0.3326   -2.3626   -5.4518 H         1 <0>         0.0428
     50 H12         3.3102   -0.6631   -4.2694 H         1 <0>         0.0663
     51 H13         3.5756   -1.3313   -5.8729 H         1 <0>         0.0466
     52 H14         1.5347   -1.2544   -7.6060 H         1 <0>         0.0493
     53 H15         0.0251   -0.5402   -7.0577 H         1 <0>         0.0520
     54 H16        -2.5383    1.0847   -7.4380 H         1 <0>         0.0915
     55 H17        -0.7712    0.9407   -7.5731 H         1 <0>         0.0601
     56 H18        -4.9589    2.6417  -12.0345 H         1 <0>         0.0688
     57 H19        -5.6440    3.0543  -10.4769 H         1 <0>         0.0630
     58 H20        -0.8817    0.7357   -9.9443 H         1 <0>         0.0807
     59 H21        -2.3843   -0.0833   -9.5137 H         1 <0>         0.0380
     60 H22        -4.4563    1.4977   -9.3732 H         1 <0>         0.0484
     61 H23        -4.1342    0.8159  -10.9661 H         1 <0>         0.0697
     62 H24        -2.0334    3.4095   -7.3263 H         1 <0>         0.0843
     63 H25         0.9629   -0.1158   -4.8124 H         1 <0>         0.0831
     64 H26        -4.2259    6.3366  -11.1252 H         1 <0>         0.0704
     65 H27        -5.4653    5.4651  -10.2453 H         1 <0>         0.0718
     66 H28         4.0550    5.0981   -8.7294 H         1 <0>         0.0606
     67 H29         4.2035    5.3200   -6.9896 H         1 <0>         0.0458
     68 H30         3.1762    7.3642   -9.0068 H         1 <0>         0.0375
     69 H31         3.2423    7.6502   -7.2709 H         1 <0>         0.0392
     70 H32         1.5916    5.3838   -8.5996 H         1 <0>         0.0606
     71 H33         1.6928    5.6841   -6.8667 H         1 <0>         0.0579
     72 H34         5.7475    7.3513   -7.3332 H         1 <0>         0.0571
     73 H35         5.2173    8.6706   -8.3874 H         1 <0>         0.0503
     74 H36         2.4714    3.0747   -8.2388 H         1 <0>         0.0993
     75 H37        -2.4982    3.3913  -12.3759 H         1 <0>         0.3700
     76 H38        -2.5954    5.1358  -12.4112 H         1 <0>         0.3660
     77 H39         6.7859    7.0740   -9.5225 H         1 <0>         0.3465
     78 H40         5.2151    6.5685  -10.0979 H         1 <0>         0.3446
     79 H41         2.3934    0.9566   -7.1391 H         1 <0>         0.3148
     80 H42         0.2924    2.7728   -6.5286 H         1 <0>         0.3220
@<TRIPOS>BOND
     1    1    2 ar
     2    1    3 ar
     3    2    4 ar
     4    3    5 ar
     5    4    6 ar
     6    5    6 ar
     7    6   23 1
     8    7   22 1
     9    7   29 am
    10    7   35 2
    11    8    9 1
    12    8   28 1
    13    8   36 2
    14    9   33 am
    15    9   37 2
    16   10   20 1
    17   10   34 am
    18   10   38 2
    19   11   12 1
    20   11   13 1
    21   12   14 1
    22   13   15 1
    23   14   21 1
    24   15   21 1
    25   16   18 1
    26   16   20 1
    27   17   19 1
    28   17   22 1
    29   18   30 1
    30   19   30 1
    31   20   29 1
    32   21   33 1
    33   22   23 1
    34   22   31 1
    35   24   25 1
    36   24   26 1
    37   25   27 1
    38   26   28 1
    39   27   32 1
    40   28   34 1
    41   29   30 1
    42    1   39 1
    43    2   40 1
    44    3   41 1
    45    4   42 1
    46    5   43 1
    47   11   44 1
    48   11   45 1
    49   12   46 1
    50   12   47 1
    51   13   48 1
    52   13   49 1
    53   14   50 1
    54   14   51 1
    55   15   52 1
    56   15   53 1
    57   16   54 1
    58   16   55 1
    59   17   56 1
    60   17   57 1
    61   18   58 1
    62   18   59 1
    63   19   60 1
    64   19   61 1
    65   20   62 1
    66   21   63 1
    67   23   64 1
    68   23   65 1
    69   24   66 1
    70   24   67 1
    71   25   68 1
    72   25   69 1
    73   26   70 1
    74   26   71 1
    75   27   72 1
    76   27   73 1
    77   28   74 1
    78   31   75 1
    79   31   76 1
    80   32   77 1
    81   32   78 1
    82   33   79 1
    83   34   80 1
@<TRIPOS>MOLECULE
1a46_ligand_371
   80    83     0     0     0
SMALL
USER_CHARGES

mmff94s_NoEstat = 93.23
@<TRIPOS>ATOM
      1 C1          5.9504   -1.3642  -10.1903 C.ar      1 <0>        -0.1300
      2 C2          6.6765   -1.8241   -9.0918 C.ar      1 <0>        -0.1323
      3 C3          5.5463   -0.0305  -10.2504 C.ar      1 <0>        -0.1309
      4 C4          6.9984   -0.9504   -8.0532 C.ar      1 <0>        -0.1275
      5 C5          5.8681    0.8432   -9.2119 C.ar      1 <0>        -0.1272
      6 C6          6.5921    0.3776   -8.1201 C.ar      1 <0>        -0.0843
      7 C7          6.1974    2.2868   -4.7798 C.2       1 <0>         0.6709
      8 C8          5.2358    2.3798    1.5634 C.2       1 <0>         0.4867
      9 C9          5.6522    1.1980    2.3894 C.2       1 <0>         0.5883
     10 C10         5.7098    2.8119   -1.6475 C.2       1 <0>         0.6572
     11 C11         4.4021   -3.3160    0.8216 C.3       1 <0>        -0.0802
     12 C12         3.3214   -2.4910    1.5153 C.3       1 <0>        -0.0765
     13 C13         5.7197   -2.5530    0.7136 C.3       1 <0>        -0.0774
     14 C14         3.7927   -1.9768    2.8763 C.3       1 <0>        -0.0953
     15 C15         6.1855   -2.0390    2.0766 C.3       1 <0>        -0.0906
     16 C16         3.6723    3.8570   -2.6681 C.3       1 <0>        -0.0871
     17 C17         4.4858    1.7161   -6.5463 C.3       1 <0>        -0.0716
     18 C18         2.9535    2.6133   -3.1875 C.3       1 <0>         0.1333
     19 C19         3.4659    2.2898   -5.5476 C.3       1 <0>         0.1246
     20 C20         5.1372    3.5153   -2.8394 C.3       1 <0>         0.0606
     21 C21         5.1166   -1.2051    2.7954 C.3       1 <0>         0.1012
     22 C22         5.8481    1.3265   -5.9256 C.3       1 <0>         0.1554
     23 C23         6.9383    1.3175   -7.0029 C.3       1 <0>        -0.0356
     24 C24         7.6485    3.7409    2.8432 C.3       1 <0>        -0.0795
     25 C25         8.2774    4.8743    3.6620 C.3       1 <0>        -0.1203
     26 C26         6.9719    4.2276    1.5544 C.3       1 <0>        -0.0920
     27 C27         8.9284    4.3945    4.9589 C.3       1 <0>         0.1502
     28 C28         6.2906    3.1130    0.7514 C.3       1 <0>         0.0224
     29 N1          5.1345    2.5635   -3.9339 N.am      1 <0>        -0.3553
     30 N2          3.8653    2.0037   -4.1710 N.3       1 <0>        -0.4320
     31 N3          5.7803   -0.0123   -5.3216 N.3       1 <0>        -0.9031
     32 N4          9.4866    5.5266    5.6910 N.3       1 <0>        -0.9068
     33 N5          4.9185    0.0703    2.1034 N.am      1 <0>        -0.5526
     34 N6          5.7762    3.5917   -0.5046 N.am      1 <0>        -0.5576
     35 O1          7.3278    2.7504   -4.6301 O.2       1 <0>        -0.6710
     36 O2          4.0675    2.7325    1.6631 O.2       1 <0>        -0.4901
     37 O3          6.5432    1.3575    3.2076 O.2       1 <0>        -0.5902
     38 O4          6.0670    1.6440   -1.7490 O.2       1 <0>        -0.5833
     39 H1          5.6997   -2.0446  -10.9989 H         1 <0>         0.1320
     40 H2          6.9911   -2.8626   -9.0451 H         1 <0>         0.1324
     41 H3          4.9808    0.3274  -11.1059 H         1 <0>         0.1328
     42 H4          7.5644   -1.3176   -7.2012 H         1 <0>         0.1324
     43 H5          5.5489    1.8806   -9.2673 H         1 <0>         0.1434
     44 H6          4.5658   -4.2441    1.3831 H         1 <0>         0.0405
     45 H7          4.0603   -3.6053   -0.1786 H         1 <0>         0.0421
     46 H8          3.0404   -1.6452    0.8762 H         1 <0>         0.0362
     47 H9          2.4207   -3.1017    1.6461 H         1 <0>         0.0439
     48 H10         6.4885   -3.2066    0.2859 H         1 <0>         0.0350
     49 H11         5.5989   -1.7111    0.0213 H         1 <0>         0.0428
     50 H12         3.0117   -1.3414    3.3113 H         1 <0>         0.0663
     51 H13         3.9201   -2.8316    3.5526 H         1 <0>         0.0466
     52 H14         6.4506   -2.8975    2.7070 H         1 <0>         0.0493
     53 H15         7.0997   -1.4475    1.9449 H         1 <0>         0.0520
     54 H16         3.4181    4.7133   -3.3051 H         1 <0>         0.0915
     55 H17         3.3944    4.0971   -1.6373 H         1 <0>         0.0601
     56 H18         4.0497    0.8441   -7.0524 H         1 <0>         0.0688
     57 H19         4.6431    2.4675   -7.3320 H         1 <0>         0.0630
     58 H20         2.8170    1.9026   -2.3635 H         1 <0>         0.0807
     59 H21         1.9588    2.8453   -3.5837 H         1 <0>         0.0380
     60 H22         3.3744    3.3723   -5.7123 H         1 <0>         0.0484
     61 H23         2.4818    1.8533   -5.7569 H         1 <0>         0.0697
     62 H24         5.7646    4.3810   -3.0694 H         1 <0>         0.0843
     63 H25         5.4601   -0.9499    3.8034 H         1 <0>         0.0831
     64 H26         7.8868    1.0311   -6.5450 H         1 <0>         0.0704
     65 H27         7.0672    2.3317   -7.3854 H         1 <0>         0.0718
     66 H28         8.4445    3.0306    2.5915 H         1 <0>         0.0606
     67 H29         6.9275    3.2007    3.4679 H         1 <0>         0.0458
     68 H30         9.0354    5.3625    3.0356 H         1 <0>         0.0375
     69 H31         7.5157    5.6329    3.8824 H         1 <0>         0.0392
     70 H32         7.7210    4.7221    0.9235 H         1 <0>         0.0606
     71 H33         6.2174    4.9831    1.8035 H         1 <0>         0.0579
     72 H34         9.7251    3.6753    4.7403 H         1 <0>         0.0571
     73 H35         8.1937    3.8977    5.5994 H         1 <0>         0.0503
     74 H36         7.0421    2.3587    0.4881 H         1 <0>         0.0993
     75 H37         4.9287   -0.2795   -4.8849 H         1 <0>         0.3700
     76 H38         6.6336   -0.5056   -5.1950 H         1 <0>         0.3660
     77 H39        10.0430    5.3371    6.4969 H         1 <0>         0.3465
     78 H40         9.1331    6.4373    5.4892 H         1 <0>         0.3446
     79 H41         4.2076    0.1245    1.3800 H         1 <0>         0.3148
     80 H42         5.4441    4.5531   -0.5557 H         1 <0>         0.3220
@<TRIPOS>BOND
     1    1    2 ar
     2    1    3 ar
     3    2    4 ar
     4    3    5 ar
     5    4    6 ar
     6    5    6 ar
     7    6   23 1
     8    7   22 1
     9    7   29 am
    10    7   35 2
    11    8    9 1
    12    8   28 1
    13    8   36 2
    14    9   33 am
    15    9   37 2
    16   10   20 1
    17   10   34 am
    18   10   38 2
    19   11   12 1
    20   11   13 1
    21   12   14 1
    22   13   15 1
    23   14   21 1
    24   15   21 1
    25   16   18 1
    26   16   20 1
    27   17   19 1
    28   17   22 1
    29   18   30 1
    30   19   30 1
    31   20   29 1
    32   21   33 1
    33   22   23 1
    34   22   31 1
    35   24   25 1
    36   24   26 1
    37   25   27 1
    38   26   28 1
    39   27   32 1
    40   28   34 1
    41   29   30 1
    42    1   39 1
    43    2   40 1
    44    3   41 1
    45    4   42 1
    46    5   43 1
    47   11   44 1
    48   11   45 1
    49   12   46 1
    50   12   47 1
    51   13   48 1
    52   13   49 1
    53   14   50 1
    54   14   51 1
    55   15   52 1
    56   15   53 1
    57   16   54 1
    58   16   55 1
    59   17   56 1
    60   17   57 1
    61   18   58 1
    62   18   59 1
    63   19   60 1
    64   19   61 1
    65   20   62 1
    66   21   63 1
    67   23   64 1
    68   23   65 1
    69   24   66 1
    70   24   67 1
    71   25   68 1
    72   25   69 1
    73   26   70 1
    74   26   71 1
    75   27   72 1
    76   27   73 1
    77   28   74 1
    78   31   75 1
    79   31   76 1
    80   32   77 1
    81   32   78 1
    82   33   79 1
    83   34   80 1
@<TRIPOS>MOLECULE
1a46_ligand_372
   80    83     0     0     0
SMALL
USER_CHARGES

mmff94s_NoEstat = 93.29
@<TRIPOS>ATOM
      1 C1         -6.7822    9.5030   -7.7682 C.ar      1 <0>        -0.1300
      2 C2         -5.4163    9.7853   -7.7613 C.ar      1 <0>        -0.1323
      3 C3         -7.2347    8.2371   -7.3962 C.ar      1 <0>        -0.1309
      4 C4         -4.5027    8.8017   -7.3825 C.ar      1 <0>        -0.1275
      5 C5         -6.3211    7.2534   -7.0174 C.ar      1 <0>        -0.1272
      6 C6         -4.9611    7.5422   -7.0130 C.ar      1 <0>        -0.0843
      7 C7         -2.5118    4.5743   -7.4005 C.2       1 <0>         0.6709
      8 C8          2.7796    3.2097   -6.1637 C.2       1 <0>         0.4867
      9 C9          2.2829    2.0299   -5.3801 C.2       1 <0>         0.5883
     10 C10        -0.0591    2.8141   -8.5012 C.2       1 <0>         0.6572
     11 C11         3.1352   -0.7430   -0.8195 C.3       1 <0>        -0.0802
     12 C12         3.9901   -1.1863   -2.0034 C.3       1 <0>        -0.0765
     13 C13         1.8125   -0.1343   -1.2766 C.3       1 <0>        -0.0774
     14 C14         4.2106   -0.0471   -2.9972 C.3       1 <0>        -0.0953
     15 C15         2.0307    1.0065   -2.2690 C.3       1 <0>        -0.0906
     16 C16        -2.0373    1.4899   -9.2879 C.3       1 <0>        -0.0871
     17 C17        -4.7351    5.0124   -8.5142 C.3       1 <0>        -0.0716
     18 C18        -2.6100    2.4429  -10.3352 C.3       1 <0>         0.1333
     19 C19        -4.4053    3.7655   -9.3528 C.3       1 <0>         0.1246
     20 C20        -1.4789    2.4202   -8.2321 C.3       1 <0>         0.0606
     21 C21         2.8795    0.5537   -3.4621 C.3       1 <0>         0.1012
     22 C22        -3.5177    5.6586   -7.8120 C.3       1 <0>         0.1554
     23 C23        -3.9784    6.4841   -6.6055 C.3       1 <0>        -0.0356
     24 C24         3.6080    5.6033   -7.8654 C.3       1 <0>        -0.0795
     25 C25         3.7321    7.1143   -8.0937 C.3       1 <0>        -0.1203
     26 C26         2.1570    5.1335   -7.6933 C.3       1 <0>        -0.0920
     27 C27         5.1782    7.5875   -8.2387 C.3       1 <0>         0.1502
     28 C28         2.0196    3.6328   -7.4097 C.3       1 <0>         0.0224
     29 N1         -2.2867    3.6162   -8.3768 N.am      1 <0>        -0.3553
     30 N2         -2.9688    3.6719   -9.6065 N.3       1 <0>        -0.4320
     31 N3         -2.7962    6.5469   -8.7349 N.3       1 <0>        -0.9031
     32 N4          5.2178    9.0330   -8.4337 N.3       1 <0>        -0.9068
     33 N5          3.1295    1.6859   -4.3521 N.am      1 <0>        -0.5526
     34 N6          0.6426    3.2153   -7.3763 N.am      1 <0>        -0.5576
     35 O1         -1.9526    4.5762   -6.3040 O.2       1 <0>        -0.6710
     36 O2          3.8302    3.7133   -5.7870 O.2       1 <0>        -0.4901
     37 O3          1.2381    1.5078   -5.7331 O.2       1 <0>        -0.5902
     38 O4          0.3766    2.7593   -9.6452 O.2       1 <0>        -0.5833
     39 H1         -7.4936   10.2689   -8.0633 H         1 <0>         0.1320
     40 H2         -5.0642   10.7711   -8.0510 H         1 <0>         0.1324
     41 H3         -8.2983    8.0173   -7.4018 H         1 <0>         0.1328
     42 H4         -3.4404    9.0308   -7.3802 H         1 <0>         0.1324
     43 H5         -6.6828    6.2700   -6.7292 H         1 <0>         0.1434
     44 H6          2.9400   -1.5995   -0.1644 H         1 <0>         0.0405
     45 H7          3.6896   -0.0057   -0.2260 H         1 <0>         0.0421
     46 H8          4.9578   -1.5528   -1.6424 H         1 <0>         0.0362
     47 H9          3.5008   -2.0249   -2.5138 H         1 <0>         0.0439
     48 H10         1.1947   -0.9108   -1.7442 H         1 <0>         0.0350
     49 H11         1.2571    0.2351   -0.4071 H         1 <0>         0.0428
     50 H12         4.8299    0.7297   -2.5295 H         1 <0>         0.0663
     51 H13         4.7767   -0.4166   -3.8608 H         1 <0>         0.0466
     52 H14         1.0607    1.3794   -2.6197 H         1 <0>         0.0493
     53 H15         2.5198    1.8461   -1.7576 H         1 <0>         0.0520
     54 H16        -2.8519    0.8938   -8.8584 H         1 <0>         0.0915
     55 H17        -1.2935    0.8073   -9.7102 H         1 <0>         0.0601
     56 H18        -5.2314    5.7584   -9.1499 H         1 <0>         0.0688
     57 H19        -5.4801    4.7212   -7.7613 H         1 <0>         0.0630
     58 H20        -1.8289    2.6942  -11.0628 H         1 <0>         0.0807
     59 H21        -3.4401    1.9950  -10.8925 H         1 <0>         0.0380
     60 H22        -4.7690    2.8732   -8.8248 H         1 <0>         0.0484
     61 H23        -4.9562    3.8199  -10.2995 H         1 <0>         0.0697
     62 H24        -1.5441    2.0192   -7.2167 H         1 <0>         0.0843
     63 H25         2.3252   -0.1849   -4.0527 H         1 <0>         0.0831
     64 H26        -3.1056    6.9377   -6.1322 H         1 <0>         0.0704
     65 H27        -4.4243    5.8149   -5.8674 H         1 <0>         0.0718
     66 H28         4.0550    5.0981   -8.7294 H         1 <0>         0.0606
     67 H29         4.2035    5.3200   -6.9896 H         1 <0>         0.0458
     68 H30         3.1762    7.3642   -9.0068 H         1 <0>         0.0375
     69 H31         3.2423    7.6502   -7.2709 H         1 <0>         0.0392
     70 H32         1.5916    5.3838   -8.5996 H         1 <0>         0.0606
     71 H33         1.6928    5.6841   -6.8667 H         1 <0>         0.0579
     72 H34         5.6557    7.0931   -9.0916 H         1 <0>         0.0571
     73 H35         5.7562    7.3441   -7.3424 H         1 <0>         0.0503
     74 H36         2.4714    3.0747   -8.2388 H         1 <0>         0.0993
     75 H37        -2.7475    6.2791   -9.6905 H         1 <0>         0.3700
     76 H38        -2.2234    7.2564   -8.3400 H         1 <0>         0.3660
     77 H39         6.0938    9.4532   -8.6597 H         1 <0>         0.3465
     78 H40         4.4297    9.5689   -8.1390 H         1 <0>         0.3446
     79 H41         3.9656    2.2434   -4.2049 H         1 <0>         0.3148
     80 H42         0.1596    3.2148   -6.4798 H         1 <0>         0.3220
@<TRIPOS>BOND
     1    1    2 ar
     2    1    3 ar
     3    2    4 ar
     4    3    5 ar
     5    4    6 ar
     6    5    6 ar
     7    6   23 1
     8    7   22 1
     9    7   29 am
    10    7   35 2
    11    8    9 1
    12    8   28 1
    13    8   36 2
    14    9   33 am
    15    9   37 2
    16   10   20 1
    17   10   34 am
    18   10   38 2
    19   11   12 1
    20   11   13 1
    21   12   14 1
    22   13   15 1
    23   14   21 1
    24   15   21 1
    25   16   18 1
    26   16   20 1
    27   17   19 1
    28   17   22 1
    29   18   30 1
    30   19   30 1
    31   20   29 1
    32   21   33 1
    33   22   23 1
    34   22   31 1
    35   24   25 1
    36   24   26 1
    37   25   27 1
    38   26   28 1
    39   27   32 1
    40   28   34 1
    41   29   30 1
    42    1   39 1
    43    2   40 1
    44    3   41 1
    45    4   42 1
    46    5   43 1
    47   11   44 1
    48   11   45 1
    49   12   46 1
    50   12   47 1
    51   13   48 1
    52   13   49 1
    53   14   50 1
    54   14   51 1
    55   15   52 1
    56   15   53 1
    57   16   54 1
    58   16   55 1
    59   17   56 1
    60   17   57 1
    61   18   58 1
    62   18   59 1
    63   19   60 1
    64   19   61 1
    65   20   62 1
    66   21   63 1
    67   23   64 1
    68   23   65 1
    69   24   66 1
    70   24   67 1
    71   25   68 1
    72   25   69 1
    73   26   70 1
    74   26   71 1
    75   27   72 1
    76   27   73 1
    77   28   74 1
    78   31   75 1
    79   31   76 1
    80   32   77 1
    81   32   78 1
    82   33   79 1
    83   34   80 1
@<TRIPOS>MOLECULE
1a46_ligand_373
   80    83     0     0     0
SMALL
USER_CHARGES

mmff94s_NoEstat = 93.32
@<TRIPOS>ATOM
      1 C1         -3.7305   -5.9204  -11.3537 C.ar      1 <0>        -0.1300
      2 C2         -2.4262   -5.5183  -11.6410 C.ar      1 <0>        -0.1323
      3 C3         -4.6750   -4.9808  -10.9404 C.ar      1 <0>        -0.1309
      4 C4         -2.0662   -4.1766  -11.5149 C.ar      1 <0>        -0.1275
      5 C5         -4.3150   -3.6391  -10.8142 C.ar      1 <0>        -0.1272
      6 C6         -3.0129   -3.2458  -11.1023 C.ar      1 <0>        -0.0843
      7 C7         -1.7147   -0.0189   -9.4111 C.2       1 <0>         0.6709
      8 C8          2.7796    3.2097   -6.1637 C.2       1 <0>         0.4867
      9 C9          2.2829    2.0299   -5.3801 C.2       1 <0>         0.5883
     10 C10         0.2181    1.9581   -7.7739 C.2       1 <0>         0.6572
     11 C11         0.1500    0.6542   -0.6080 C.3       1 <0>        -0.0802
     12 C12        -0.4291    0.3393   -1.9844 C.3       1 <0>        -0.0765
     13 C13         1.6753    0.6969   -0.6351 C.3       1 <0>        -0.0774
     14 C14         0.0859    1.3085   -3.0472 C.3       1 <0>        -0.0953
     15 C15         2.1931    1.6659   -1.6967 C.3       1 <0>        -0.0906
     16 C16        -1.7326    1.7367   -6.2145 C.3       1 <0>        -0.0871
     17 C17        -3.1871   -1.8587   -8.5042 C.3       1 <0>        -0.0716
     18 C18        -1.5889    0.2745   -5.7969 C.3       1 <0>         0.1333
     19 C19        -3.0480   -1.1203   -7.1617 C.3       1 <0>         0.1246
     20 C20        -1.2590    1.7411   -7.6524 C.3       1 <0>         0.0606
     21 C21         1.6178    1.3392   -3.0792 C.3       1 <0>         0.1012
     22 C22        -2.1125   -1.4947   -9.5555 C.3       1 <0>         0.1554
     23 C23        -2.6257   -1.8026  -10.9666 C.3       1 <0>        -0.0356
     24 C24         1.4445    5.5921   -8.9731 C.3       1 <0>        -0.0795
     25 C25         1.6370    7.0835   -9.2718 C.3       1 <0>        -0.1203
     26 C26         2.1570    5.1335   -7.6933 C.3       1 <0>        -0.0920
     27 C27         0.9502    7.5360  -10.5601 C.3       1 <0>         0.1502
     28 C28         2.0196    3.6328   -7.4097 C.3       1 <0>         0.0224
     29 N1         -1.5278    0.3875   -8.0990 N.am      1 <0>        -0.3553
     30 N2         -1.7250   -0.5121   -7.0349 N.3       1 <0>        -0.4320
     31 N3         -0.8818   -2.2667   -9.3297 N.3       1 <0>        -0.9031
     32 N4          1.1922    8.9569  -10.7874 N.3       1 <0>        -0.9068
     33 N5          2.0747    2.3281   -4.0537 N.am      1 <0>        -0.5526
     34 N6          0.6426    3.2153   -7.3763 N.am      1 <0>        -0.5576
     35 O1         -1.5651    0.7213  -10.3831 O.2       1 <0>        -0.6710
     36 O2          3.8302    3.7133   -5.7870 O.2       1 <0>        -0.4901
     37 O3          2.1422    0.9706   -5.9690 O.2       1 <0>        -0.5902
     38 O4          0.9290    1.0536   -8.1959 O.2       1 <0>        -0.5833
     39 H1         -4.0108   -6.9651  -11.4519 H         1 <0>         0.1320
     40 H2         -1.6909   -6.2500  -11.9629 H         1 <0>         0.1324
     41 H3         -5.6906   -5.2940  -10.7166 H         1 <0>         0.1328
     42 H4         -1.0476   -3.8726  -11.7408 H         1 <0>         0.1324
     43 H5         -5.0575   -2.9141  -10.4915 H         1 <0>         0.1434
     44 H6         -0.2354    1.6218   -0.2633 H         1 <0>         0.0405
     45 H7         -0.1849   -0.0991    0.1141 H         1 <0>         0.0421
     46 H8         -0.1624   -0.6866   -2.2668 H         1 <0>         0.0362
     47 H9         -1.5231    0.3855   -1.9432 H         1 <0>         0.0439
     48 H10         2.0535    0.9929    0.3499 H         1 <0>         0.0350
     49 H11         2.0649   -0.3082   -0.8385 H         1 <0>         0.0428
     50 H12        -0.3043    1.0175   -4.0300 H         1 <0>         0.0663
     51 H13        -0.3051    2.3141   -2.8438 H         1 <0>         0.0466
     52 H14         1.9276    2.6929   -1.4134 H         1 <0>         0.0493
     53 H15         3.2887    1.6258   -1.7274 H         1 <0>         0.0520
     54 H16        -2.7915    2.0208   -6.1758 H         1 <0>         0.0915
     55 H17        -1.1685    2.4118   -5.5637 H         1 <0>         0.0601
     56 H18        -3.1756   -2.9428   -8.3269 H         1 <0>         0.0688
     57 H19        -4.1842   -1.6345   -8.9071 H         1 <0>         0.0630
     58 H20        -0.5812    0.1087   -5.3971 H         1 <0>         0.0807
     59 H21        -2.2993   -0.0031   -5.0104 H         1 <0>         0.0380
     60 H22        -3.8377   -0.3598   -7.0886 H         1 <0>         0.0484
     61 H23        -3.2188   -1.8335   -6.3463 H         1 <0>         0.0697
     62 H24        -1.7729    2.4744   -8.2803 H         1 <0>         0.0843
     63 H25         2.0013    0.3710   -3.4212 H         1 <0>         0.0831
     64 H26        -1.8489   -1.5475  -11.6898 H         1 <0>         0.0704
     65 H27        -3.4798   -1.1578  -11.1818 H         1 <0>         0.0718
     66 H28         0.3683    5.4079   -8.8774 H         1 <0>         0.0606
     67 H29         1.7918    5.0040   -9.8306 H         1 <0>         0.0458
     68 H30         1.2300    7.6523   -8.4256 H         1 <0>         0.0375
     69 H31         2.7093    7.3123   -9.3176 H         1 <0>         0.0392
     70 H32         1.7604    5.7005   -6.8419 H         1 <0>         0.0606
     71 H33         3.2243    5.3739   -7.7660 H         1 <0>         0.0579
     72 H34        -0.1287    7.3572  -10.4981 H         1 <0>         0.0571
     73 H35         1.3345    6.9786  -11.4193 H         1 <0>         0.0503
     74 H36         2.4714    3.0747   -8.2388 H         1 <0>         0.0993
     75 H37        -0.6260   -2.4640   -8.3900 H         1 <0>         0.3700
     76 H38        -0.2603   -2.3800  -10.0968 H         1 <0>         0.3660
     77 H39         0.7014    9.4044  -11.5317 H         1 <0>         0.3465
     78 H40         1.9755    9.3785  -10.3359 H         1 <0>         0.3446
     79 H41         2.2460    3.2779   -3.7372 H         1 <0>         0.3148
     80 H42        -0.0552    3.8781   -7.0434 H         1 <0>         0.3220
@<TRIPOS>BOND
     1    1    2 ar
     2    1    3 ar
     3    2    4 ar
     4    3    5 ar
     5    4    6 ar
     6    5    6 ar
     7    6   23 1
     8    7   22 1
     9    7   29 am
    10    7   35 2
    11    8    9 1
    12    8   28 1
    13    8   36 2
    14    9   33 am
    15    9   37 2
    16   10   20 1
    17   10   34 am
    18   10   38 2
    19   11   12 1
    20   11   13 1
    21   12   14 1
    22   13   15 1
    23   14   21 1
    24   15   21 1
    25   16   18 1
    26   16   20 1
    27   17   19 1
    28   17   22 1
    29   18   30 1
    30   19   30 1
    31   20   29 1
    32   21   33 1
    33   22   23 1
    34   22   31 1
    35   24   25 1
    36   24   26 1
    37   25   27 1
    38   26   28 1
    39   27   32 1
    40   28   34 1
    41   29   30 1
    42    1   39 1
    43    2   40 1
    44    3   41 1
    45    4   42 1
    46    5   43 1
    47   11   44 1
    48   11   45 1
    49   12   46 1
    50   12   47 1
    51   13   48 1
    52   13   49 1
    53   14   50 1
    54   14   51 1
    55   15   52 1
    56   15   53 1
    57   16   54 1
    58   16   55 1
    59   17   56 1
    60   17   57 1
    61   18   58 1
    62   18   59 1
    63   19   60 1
    64   19   61 1
    65   20   62 1
    66   21   63 1
    67   23   64 1
    68   23   65 1
    69   24   66 1
    70   24   67 1
    71   25   68 1
    72   25   69 1
    73   26   70 1
    74   26   71 1
    75   27   72 1
    76   27   73 1
    77   28   74 1
    78   31   75 1
    79   31   76 1
    80   32   77 1
    81   32   78 1
    82   33   79 1
    83   34   80 1
@<TRIPOS>MOLECULE
1a46_ligand_374
   80    83     0     0     0
SMALL
USER_CHARGES

mmff94s_NoEstat = 93.35
@<TRIPOS>ATOM
      1 C1         -4.4072   -3.0319  -14.4211 C.ar      1 <0>        -0.1300
      2 C2         -3.1014   -2.5683  -14.5810 C.ar      1 <0>        -0.1323
      3 C3         -5.2666   -2.3997  -13.5224 C.ar      1 <0>        -0.1309
      4 C4         -2.6549   -1.4727  -13.8421 C.ar      1 <0>        -0.1275
      5 C5         -4.8200   -1.3041  -12.7835 C.ar      1 <0>        -0.1272
      6 C6         -3.5171   -0.8478  -12.9482 C.ar      1 <0>        -0.0843
      7 C7         -1.9267    1.0916  -10.0042 C.2       1 <0>         0.6709
      8 C8          2.7796    3.2097   -6.1637 C.2       1 <0>         0.4867
      9 C9          4.2189    2.8058   -6.2975 C.2       1 <0>         0.5883
     10 C10         0.2181    1.9581   -7.7739 C.2       1 <0>         0.6572
     11 C11         7.8472    1.1582   -9.9494 C.3       1 <0>        -0.0802
     12 C12         7.4315    0.4126   -8.6844 C.3       1 <0>        -0.0765
     13 C13         7.7750    2.6709   -9.7609 C.3       1 <0>        -0.0774
     14 C14         6.0513    0.8522   -8.1989 C.3       1 <0>        -0.0953
     15 C15         6.3949    3.1130   -9.2773 C.3       1 <0>        -0.0906
     16 C16        -1.6423    1.0361   -6.3687 C.3       1 <0>        -0.0871
     17 C17        -3.4475   -0.9240   -9.9997 C.3       1 <0>        -0.0716
     18 C18        -1.5606   -0.4439   -6.7372 C.3       1 <0>         0.1333
     19 C19        -3.1819   -0.9495   -8.4846 C.3       1 <0>         0.1246
     20 C20        -1.2590    1.7411   -7.6524 C.3       1 <0>         0.0606
     21 C21         5.9867    2.3706   -8.0002 C.3       1 <0>         0.1012
     22 C22        -2.4199   -0.1108  -10.8216 C.3       1 <0>         0.1554
     23 C23        -3.0368    0.3307  -12.1535 C.3       1 <0>        -0.0356
     24 C24         1.5857    6.0302   -6.5865 C.3       1 <0>        -0.0795
     25 C25         1.6811    7.5259   -6.9095 C.3       1 <0>        -0.1203
     26 C26         2.1570    5.1335   -7.6933 C.3       1 <0>        -0.0920
     27 C27         1.0885    8.4192   -5.8200 C.3       1 <0>         0.1502
     28 C28         2.0196    3.6328   -7.4097 C.3       1 <0>         0.0224
     29 N1         -1.6352    0.7917   -8.6825 N.am      1 <0>        -0.3553
     30 N2         -1.8196   -0.5121   -8.1858 N.3       1 <0>        -0.4320
     31 N3         -1.2259   -0.9195  -11.1076 N.3       1 <0>        -0.9031
     32 N4          1.1980    9.8225   -6.2046 N.3       1 <0>        -0.9068
     33 N5          4.6345    2.7631   -7.6080 N.am      1 <0>        -0.5526
     34 N6          0.6426    3.2153   -7.3763 N.am      1 <0>        -0.5576
     35 O1         -1.7935    2.2123  -10.4955 O.2       1 <0>        -0.6710
     36 O2          2.3266    3.2509   -5.0269 O.2       1 <0>        -0.4901
     37 O3          4.8376    2.5476   -5.2781 O.2       1 <0>        -0.5902
     38 O4          0.9290    1.0536   -8.1959 O.2       1 <0>        -0.5833
     39 H1         -4.7549   -3.8850  -14.9963 H         1 <0>         0.1320
     40 H2         -2.4324   -3.0606  -15.2808 H         1 <0>         0.1324
     41 H3         -6.2832   -2.7609  -13.3979 H         1 <0>         0.1328
     42 H4         -1.6358   -1.1186  -13.9733 H         1 <0>         0.1324
     43 H5         -5.4966   -0.8180  -12.0857 H         1 <0>         0.1434
     44 H6          8.8666    0.8698  -10.2293 H         1 <0>         0.0405
     45 H7          7.1919    0.8628  -10.7780 H         1 <0>         0.0421
     46 H8          7.4280   -0.6662   -8.8768 H         1 <0>         0.0362
     47 H9          8.1701    0.5940   -7.8939 H         1 <0>         0.0439
     48 H10         8.5338    2.9857   -9.0339 H         1 <0>         0.0350
     49 H11         8.0117    3.1716  -10.7066 H         1 <0>         0.0428
     50 H12         5.2916    0.5363   -8.9260 H         1 <0>         0.0663
     51 H13         5.8119    0.3409   -7.2586 H         1 <0>         0.0466
     52 H14         6.3976    4.1949   -9.0969 H         1 <0>         0.0493
     53 H15         5.6559    2.9320  -10.0691 H         1 <0>         0.0520
     54 H16        -2.6779    1.2865   -6.1074 H         1 <0>         0.0915
     55 H17        -0.9998    1.2887   -5.5196 H         1 <0>         0.0601
     56 H18        -3.4897   -1.9539  -10.3797 H         1 <0>         0.0688
     57 H19        -4.4523   -0.5086  -10.1558 H         1 <0>         0.0630
     58 H20        -0.5419   -0.8072   -6.5560 H         1 <0>         0.0807
     59 H21        -2.2364   -1.0589   -6.1327 H         1 <0>         0.0380
     60 H22        -3.9187   -0.3080   -7.9817 H         1 <0>         0.0484
     61 H23        -3.3442   -1.9688   -8.1140 H         1 <0>         0.0697
     62 H24        -1.7661    2.6997   -7.7936 H         1 <0>         0.0843
     63 H25         6.6441    2.6649   -7.1738 H         1 <0>         0.0831
     64 H26        -2.2923    0.8934  -12.7197 H         1 <0>         0.0704
     65 H27        -3.8625    1.0157  -11.9521 H         1 <0>         0.0718
     66 H28         2.1358    5.8550   -5.6547 H         1 <0>         0.0606
     67 H29         0.5392    5.7688   -6.3906 H         1 <0>         0.0458
     68 H30         2.7419    7.7748   -7.0444 H         1 <0>         0.0375
     69 H31         1.1870    7.7255   -7.8687 H         1 <0>         0.0392
     70 H32         3.2164    5.3787   -7.8393 H         1 <0>         0.0606
     71 H33         1.6466    5.3535   -8.6384 H         1 <0>         0.0579
     72 H34         1.6137    8.2608   -4.8719 H         1 <0>         0.0571
     73 H35         0.0315    8.1861   -5.6617 H         1 <0>         0.0503
     74 H36         2.4714    3.0747   -8.2388 H         1 <0>         0.0993
     75 H37        -0.9249   -1.5612  -10.4112 H         1 <0>         0.3700
     76 H38        -0.6609   -0.6518  -11.8799 H         1 <0>         0.3660
     77 H39         0.9557   10.5154   -5.5293 H         1 <0>         0.3465
     78 H40         1.3102   10.0373   -7.1723 H         1 <0>         0.3446
     79 H41         3.9724    3.0156   -8.3355 H         1 <0>         0.3148
     80 H42        -0.0552    3.8781   -7.0434 H         1 <0>         0.3220
@<TRIPOS>BOND
     1    1    2 ar
     2    1    3 ar
     3    2    4 ar
     4    3    5 ar
     5    4    6 ar
     6    5    6 ar
     7    6   23 1
     8    7   22 1
     9    7   29 am
    10    7   35 2
    11    8    9 1
    12    8   28 1
    13    8   36 2
    14    9   33 am
    15    9   37 2
    16   10   20 1
    17   10   34 am
    18   10   38 2
    19   11   12 1
    20   11   13 1
    21   12   14 1
    22   13   15 1
    23   14   21 1
    24   15   21 1
    25   16   18 1
    26   16   20 1
    27   17   19 1
    28   17   22 1
    29   18   30 1
    30   19   30 1
    31   20   29 1
    32   21   33 1
    33   22   23 1
    34   22   31 1
    35   24   25 1
    36   24   26 1
    37   25   27 1
    38   26   28 1
    39   27   32 1
    40   28   34 1
    41   29   30 1
    42    1   39 1
    43    2   40 1
    44    3   41 1
    45    4   42 1
    46    5   43 1
    47   11   44 1
    48   11   45 1
    49   12   46 1
    50   12   47 1
    51   13   48 1
    52   13   49 1
    53   14   50 1
    54   14   51 1
    55   15   52 1
    56   15   53 1
    57   16   54 1
    58   16   55 1
    59   17   56 1
    60   17   57 1
    61   18   58 1
    62   18   59 1
    63   19   60 1
    64   19   61 1
    65   20   62 1
    66   21   63 1
    67   23   64 1
    68   23   65 1
    69   24   66 1
    70   24   67 1
    71   25   68 1
    72   25   69 1
    73   26   70 1
    74   26   71 1
    75   27   72 1
    76   27   73 1
    77   28   74 1
    78   31   75 1
    79   31   76 1
    80   32   77 1
    81   32   78 1
    82   33   79 1
    83   34   80 1
@<TRIPOS>MOLECULE
1a46_ligand_375
   80    83     0     0     0
SMALL
USER_CHARGES

mmff94s_NoEstat = 93.39
@<TRIPOS>ATOM
      1 C1         11.0121    9.2104   -7.9325 C.ar      1 <0>        -0.1300
      2 C2         11.5385    8.8832   -6.6829 C.ar      1 <0>        -0.1323
      3 C3          9.6345    9.1559   -8.1449 C.ar      1 <0>        -0.1309
      4 C4         10.6874    8.5015   -5.6458 C.ar      1 <0>        -0.1275
      5 C5          8.7834    8.7742   -7.1078 C.ar      1 <0>        -0.1272
      6 C6          9.3154    8.4495   -5.8650 C.ar      1 <0>        -0.0843
      7 C7          7.2411    6.0968   -3.6024 C.2       1 <0>         0.6709
      8 C8          5.2358    2.3798    1.5634 C.2       1 <0>         0.4867
      9 C9          4.9672    2.8271    2.9706 C.2       1 <0>         0.5883
     10 C10         6.5256    3.6321   -1.6689 C.2       1 <0>         0.6572
     11 C11         0.2716    3.3826    4.3985 C.3       1 <0>        -0.0802
     12 C12         0.8842    4.4980    3.5555 C.3       1 <0>        -0.0765
     13 C13         1.2566    2.2409    4.6351 C.3       1 <0>        -0.0774
     14 C14         2.1995    4.9981    4.1541 C.3       1 <0>        -0.0953
     15 C15         2.5710    2.7464    5.2316 C.3       1 <0>        -0.0906
     16 C16         5.2113    3.0694   -3.7284 C.3       1 <0>        -0.0871
     17 C17         7.6012    6.0599   -6.1012 C.3       1 <0>        -0.0716
     18 C18         6.3446    2.7580   -4.7039 C.3       1 <0>         0.1333
     19 C19         6.8355    4.7264   -6.0536 C.3       1 <0>         0.1246
     20 C20         5.7868    4.1659   -2.8575 C.3       1 <0>         0.0606
     21 C21         3.2085    3.8688    4.4019 C.3       1 <0>         0.1012
     22 C22         8.1773    6.5224   -4.7422 C.3       1 <0>         0.1554
     23 C23         8.4000    8.0389   -4.7494 C.3       1 <0>        -0.0356
     24 C24         6.0158    5.3379    2.0114 C.3       1 <0>        -0.0795
     25 C25         6.7209    6.4716    2.7653 C.3       1 <0>        -0.1203
     26 C26         6.9719    4.2276    1.5544 C.3       1 <0>        -0.0920
     27 C27         5.7742    7.5909    3.1979 C.3       1 <0>         0.1502
     28 C28         6.2906    3.1130    0.7514 C.3       1 <0>         0.0224
     29 N1          6.7674    4.7991   -3.7183 N.am      1 <0>        -0.3553
     30 N2          7.1280    4.0001   -4.8193 N.3       1 <0>        -0.4320
     31 N3          9.4643    5.8648   -4.4722 N.3       1 <0>        -0.9031
     32 N4          6.5168    8.6391    3.8900 N.3       1 <0>        -0.9068
     33 N5          3.7009    3.3404    3.1278 N.am      1 <0>        -0.5526
     34 N6          5.7762    3.5917   -0.5046 N.am      1 <0>        -0.5576
     35 O1          6.9567    6.8465   -2.6685 O.2       1 <0>        -0.6710
     36 O2          4.5176    1.4899    1.1258 O.2       1 <0>        -0.4901
     37 O3          5.8662    2.7146    3.7879 O.2       1 <0>        -0.5902
     38 O4          7.6924    3.2783   -1.7917 O.2       1 <0>        -0.5833
     39 H1         11.6747    9.5075   -8.7400 H         1 <0>         0.1320
     40 H2         12.6111    8.9257   -6.5176 H         1 <0>         0.1324
     41 H3          9.2248    9.4105   -9.1180 H         1 <0>         0.1328
     42 H4         11.1066    8.2484   -4.6756 H         1 <0>         0.1324
     43 H5          7.7115    8.7346   -7.2826 H         1 <0>         0.1434
     44 H6         -0.0473    3.7924    5.3649 H         1 <0>         0.0405
     45 H7         -0.6275    2.9978    3.9040 H         1 <0>         0.0421
     46 H8          1.0557    4.1332    2.5355 H         1 <0>         0.0362
     47 H9          0.1762    5.3312    3.4787 H         1 <0>         0.0439
     48 H10         0.8079    1.5026    5.3094 H         1 <0>         0.0350
     49 H11         1.4534    1.7257    3.6873 H         1 <0>         0.0428
     50 H12         2.6344    5.7530    3.4879 H         1 <0>         0.0663
     51 H13         1.9865    5.4999    5.1066 H         1 <0>         0.0466
     52 H14         2.3793    3.1187    6.2461 H         1 <0>         0.0493
     53 H15         3.2690    1.9060    5.3283 H         1 <0>         0.0520
     54 H16         4.3507    3.4578   -4.2870 H         1 <0>         0.0915
     55 H17         4.8908    2.1856   -3.1683 H         1 <0>         0.0601
     56 H18         8.4120    5.9885   -6.8390 H         1 <0>         0.0688
     57 H19         6.9149    6.8257   -6.4876 H         1 <0>         0.0630
     58 H20         6.9926    1.9855   -4.2725 H         1 <0>         0.0807
     59 H21         5.9735    2.3729   -5.6602 H         1 <0>         0.0380
     60 H22         5.7592    4.9288   -6.1435 H         1 <0>         0.0484
     61 H23         7.1185    4.1245   -6.9255 H         1 <0>         0.0697
     62 H24         5.0406    4.8864   -2.5107 H         1 <0>         0.0843
     63 H25         4.0871    4.2632    4.9231 H         1 <0>         0.0831
     64 H26         8.8151    8.3408   -3.7861 H         1 <0>         0.0704
     65 H27         7.4343    8.5386   -4.8464 H         1 <0>         0.0718
     66 H28         5.2579    4.9142    2.6804 H         1 <0>         0.0606
     67 H29         5.4809    5.7546    1.1500 H         1 <0>         0.0458
     68 H30         7.2000    6.0392    3.6534 H         1 <0>         0.0375
     69 H31         7.5258    6.8807    2.1417 H         1 <0>         0.0392
     70 H32         7.4599    3.7926    2.4354 H         1 <0>         0.0606
     71 H33         7.7645    4.6634    0.9347 H         1 <0>         0.0579
     72 H34         4.9986    7.1962    3.8630 H         1 <0>         0.0571
     73 H35         5.2784    8.0349    2.3297 H         1 <0>         0.0503
     74 H36         7.0421    2.3587    0.4881 H         1 <0>         0.0993
     75 H37         9.5764    4.9261   -4.7778 H         1 <0>         0.3700
     76 H38        10.0811    6.3037   -3.8286 H         1 <0>         0.3660
     77 H39         5.9996    9.3711    4.3277 H         1 <0>         0.3465
     78 H40         7.4997    8.7018    3.7315 H         1 <0>         0.3446
     79 H41         3.0795    3.3535    2.3245 H         1 <0>         0.3148
     80 H42         4.8120    3.9176   -0.5391 H         1 <0>         0.3220
@<TRIPOS>BOND
     1    1    2 ar
     2    1    3 ar
     3    2    4 ar
     4    3    5 ar
     5    4    6 ar
     6    5    6 ar
     7    6   23 1
     8    7   22 1
     9    7   29 am
    10    7   35 2
    11    8    9 1
    12    8   28 1
    13    8   36 2
    14    9   33 am
    15    9   37 2
    16   10   20 1
    17   10   34 am
    18   10   38 2
    19   11   12 1
    20   11   13 1
    21   12   14 1
    22   13   15 1
    23   14   21 1
    24   15   21 1
    25   16   18 1
    26   16   20 1
    27   17   19 1
    28   17   22 1
    29   18   30 1
    30   19   30 1
    31   20   29 1
    32   21   33 1
    33   22   23 1
    34   22   31 1
    35   24   25 1
    36   24   26 1
    37   25   27 1
    38   26   28 1
    39   27   32 1
    40   28   34 1
    41   29   30 1
    42    1   39 1
    43    2   40 1
    44    3   41 1
    45    4   42 1
    46    5   43 1
    47   11   44 1
    48   11   45 1
    49   12   46 1
    50   12   47 1
    51   13   48 1
    52   13   49 1
    53   14   50 1
    54   14   51 1
    55   15   52 1
    56   15   53 1
    57   16   54 1
    58   16   55 1
    59   17   56 1
    60   17   57 1
    61   18   58 1
    62   18   59 1
    63   19   60 1
    64   19   61 1
    65   20   62 1
    66   21   63 1
    67   23   64 1
    68   23   65 1
    69   24   66 1
    70   24   67 1
    71   25   68 1
    72   25   69 1
    73   26   70 1
    74   26   71 1
    75   27   72 1
    76   27   73 1
    77   28   74 1
    78   31   75 1
    79   31   76 1
    80   32   77 1
    81   32   78 1
    82   33   79 1
    83   34   80 1
@<TRIPOS>MOLECULE
1a46_ligand_376
   80    83     0     0     0
SMALL
USER_CHARGES

mmff94s_NoEstat = 93.42
@<TRIPOS>ATOM
      1 C1         11.1945    5.3647   -9.7731 C.ar      1 <0>        -0.1300
      2 C2         11.8337    5.1154   -8.5586 C.ar      1 <0>        -0.1323
      3 C3          9.8873    5.8513   -9.7863 C.ar      1 <0>        -0.1309
      4 C4         11.1656    5.3526   -7.3573 C.ar      1 <0>        -0.1275
      5 C5          9.2192    6.0884   -8.5850 C.ar      1 <0>        -0.1272
      6 C6          9.8628    5.8375   -7.3783 C.ar      1 <0>        -0.0843
      7 C7          7.6425    5.1042   -4.2977 C.2       1 <0>         0.6709
      8 C8          5.2358    2.3798    1.5634 C.2       1 <0>         0.4867
      9 C9          4.9672    2.8271    2.9706 C.2       1 <0>         0.5883
     10 C10         6.5256    3.6321   -1.6689 C.2       1 <0>         0.6572
     11 C11         0.2716    3.3826    4.3985 C.3       1 <0>        -0.0802
     12 C12         0.8842    4.4980    3.5555 C.3       1 <0>        -0.0765
     13 C13         1.2566    2.2409    4.6351 C.3       1 <0>        -0.0774
     14 C14         2.1995    4.9981    4.1541 C.3       1 <0>        -0.0953
     15 C15         2.5710    2.7464    5.2316 C.3       1 <0>        -0.0906
     16 C16         4.6595    3.2577   -3.3009 C.3       1 <0>        -0.0871
     17 C17         7.3760    4.3986   -6.7074 C.3       1 <0>        -0.0716
     18 C18         5.3367    2.3027   -4.2819 C.3       1 <0>         0.1333
     19 C19         6.2012    3.5529   -6.1864 C.3       1 <0>         0.1246
     20 C20         5.7868    4.1659   -2.8575 C.3       1 <0>         0.0606
     21 C21         3.2085    3.8688    4.4019 C.3       1 <0>         0.1012
     22 C22         8.3797    4.8486   -5.6198 C.3       1 <0>         0.1554
     23 C23         9.1441    6.0926   -6.0861 C.3       1 <0>        -0.0356
     24 C24         6.0158    5.3379    2.0114 C.3       1 <0>        -0.0795
     25 C25         6.7209    6.4716    2.7653 C.3       1 <0>        -0.1203
     26 C26         6.9719    4.2276    1.5544 C.3       1 <0>        -0.0920
     27 C27         5.7742    7.5909    3.1979 C.3       1 <0>         0.1502
     28 C28         6.2906    3.1130    0.7514 C.3       1 <0>         0.0224
     29 N1          6.7058    4.1331   -3.9791 N.am      1 <0>        -0.3553
     30 N2          6.4777    3.0462   -4.8435 N.3       1 <0>        -0.4320
     31 N3          9.3531    3.7833   -5.3380 N.3       1 <0>        -0.9031
     32 N4          6.5168    8.6391    3.8900 N.3       1 <0>        -0.9068
     33 N5          3.7009    3.3404    3.1278 N.am      1 <0>        -0.5526
     34 N6          5.7762    3.5917   -0.5046 N.am      1 <0>        -0.5576
     35 O1          7.8821    6.0807   -3.5877 O.2       1 <0>        -0.6710
     36 O2          4.5176    1.4899    1.1258 O.2       1 <0>        -0.4901
     37 O3          5.8662    2.7146    3.7879 O.2       1 <0>        -0.5902
     38 O4          7.6924    3.2783   -1.7917 O.2       1 <0>        -0.5833
     39 H1         11.7147    5.1800  -10.7084 H         1 <0>         0.1320
     40 H2         12.8515    4.7366   -8.5485 H         1 <0>         0.1324
     41 H3          9.3897    6.0452  -10.7320 H         1 <0>         0.1328
     42 H4         11.6716    5.1554   -6.4159 H         1 <0>         0.1324
     43 H5          8.2009    6.4675   -8.6050 H         1 <0>         0.1434
     44 H6         -0.0473    3.7924    5.3649 H         1 <0>         0.0405
     45 H7         -0.6275    2.9978    3.9040 H         1 <0>         0.0421
     46 H8          1.0557    4.1332    2.5355 H         1 <0>         0.0362
     47 H9          0.1762    5.3312    3.4787 H         1 <0>         0.0439
     48 H10         0.8079    1.5026    5.3094 H         1 <0>         0.0350
     49 H11         1.4534    1.7257    3.6873 H         1 <0>         0.0428
     50 H12         2.6344    5.7530    3.4879 H         1 <0>         0.0663
     51 H13         1.9865    5.4999    5.1066 H         1 <0>         0.0466
     52 H14         2.3793    3.1187    6.2461 H         1 <0>         0.0493
     53 H15         3.2690    1.9060    5.3283 H         1 <0>         0.0520
     54 H16         3.9023    3.8458   -3.8340 H         1 <0>         0.0915
     55 H17         4.1709    2.7289   -2.4768 H         1 <0>         0.0601
     56 H18         7.9078    3.8408   -7.4902 H         1 <0>         0.0688
     57 H19         6.9559    5.2827   -7.2061 H         1 <0>         0.0630
     58 H20         5.7303    1.4383   -3.7336 H         1 <0>         0.0807
     59 H21         4.6390    1.9190   -5.0344 H         1 <0>         0.0380
     60 H22         5.2889    4.1652   -6.1941 H         1 <0>         0.0484
     61 H23         6.0298    2.7205   -6.8794 H         1 <0>         0.0697
     62 H24         5.4651    5.1881   -2.6391 H         1 <0>         0.0843
     63 H25         4.0871    4.2632    4.9231 H         1 <0>         0.0831
     64 H26         9.8520    6.3858   -5.3087 H         1 <0>         0.0704
     65 H27         8.4405    6.9195   -6.1990 H         1 <0>         0.0718
     66 H28         5.2579    4.9142    2.6804 H         1 <0>         0.0606
     67 H29         5.4809    5.7546    1.1500 H         1 <0>         0.0458
     68 H30         7.2000    6.0392    3.6534 H         1 <0>         0.0375
     69 H31         7.5258    6.8807    2.1417 H         1 <0>         0.0392
     70 H32         7.4599    3.7926    2.4354 H         1 <0>         0.0606
     71 H33         7.7645    4.6634    0.9347 H         1 <0>         0.0579
     72 H34         4.9986    7.1962    3.8630 H         1 <0>         0.0571
     73 H35         5.2784    8.0349    2.3297 H         1 <0>         0.0503
     74 H36         7.0421    2.3587    0.4881 H         1 <0>         0.0993
     75 H37         9.0331    2.8434   -5.3754 H         1 <0>         0.3700
     76 H38        10.2196    4.0460   -4.9287 H         1 <0>         0.3660
     77 H39         5.9996    9.3711    4.3277 H         1 <0>         0.3465
     78 H40         7.4997    8.7018    3.7315 H         1 <0>         0.3446
     79 H41         3.0795    3.3535    2.3245 H         1 <0>         0.3148
     80 H42         4.8120    3.9176   -0.5391 H         1 <0>         0.3220
@<TRIPOS>BOND
     1    1    2 ar
     2    1    3 ar
     3    2    4 ar
     4    3    5 ar
     5    4    6 ar
     6    5    6 ar
     7    6   23 1
     8    7   22 1
     9    7   29 am
    10    7   35 2
    11    8    9 1
    12    8   28 1
    13    8   36 2
    14    9   33 am
    15    9   37 2
    16   10   20 1
    17   10   34 am
    18   10   38 2
    19   11   12 1
    20   11   13 1
    21   12   14 1
    22   13   15 1
    23   14   21 1
    24   15   21 1
    25   16   18 1
    26   16   20 1
    27   17   19 1
    28   17   22 1
    29   18   30 1
    30   19   30 1
    31   20   29 1
    32   21   33 1
    33   22   23 1
    34   22   31 1
    35   24   25 1
    36   24   26 1
    37   25   27 1
    38   26   28 1
    39   27   32 1
    40   28   34 1
    41   29   30 1
    42    1   39 1
    43    2   40 1
    44    3   41 1
    45    4   42 1
    46    5   43 1
    47   11   44 1
    48   11   45 1
    49   12   46 1
    50   12   47 1
    51   13   48 1
    52   13   49 1
    53   14   50 1
    54   14   51 1
    55   15   52 1
    56   15   53 1
    57   16   54 1
    58   16   55 1
    59   17   56 1
    60   17   57 1
    61   18   58 1
    62   18   59 1
    63   19   60 1
    64   19   61 1
    65   20   62 1
    66   21   63 1
    67   23   64 1
    68   23   65 1
    69   24   66 1
    70   24   67 1
    71   25   68 1
    72   25   69 1
    73   26   70 1
    74   26   71 1
    75   27   72 1
    76   27   73 1
    77   28   74 1
    78   31   75 1
    79   31   76 1
    80   32   77 1
    81   32   78 1
    82   33   79 1
    83   34   80 1
@<TRIPOS>MOLECULE
1a46_ligand_377
   80    83     0     0     0
SMALL
USER_CHARGES

mmff94s_NoEstat = 93.50
@<TRIPOS>ATOM
      1 C1         11.1945    5.3647   -9.7731 C.ar      1 <0>        -0.1300
      2 C2         11.8337    5.1154   -8.5586 C.ar      1 <0>        -0.1323
      3 C3          9.8873    5.8513   -9.7863 C.ar      1 <0>        -0.1309
      4 C4         11.1656    5.3526   -7.3573 C.ar      1 <0>        -0.1275
      5 C5          9.2192    6.0884   -8.5850 C.ar      1 <0>        -0.1272
      6 C6          9.8628    5.8375   -7.3783 C.ar      1 <0>        -0.0843
      7 C7          7.6425    5.1042   -4.2977 C.2       1 <0>         0.6709
      8 C8          5.2358    2.3798    1.5634 C.2       1 <0>         0.4867
      9 C9          5.6522    1.1980    2.3894 C.2       1 <0>         0.5883
     10 C10         6.5256    3.6321   -1.6689 C.2       1 <0>         0.6572
     11 C11         4.4021   -3.3160    0.8216 C.3       1 <0>        -0.0802
     12 C12         3.3214   -2.4910    1.5153 C.3       1 <0>        -0.0765
     13 C13         5.7197   -2.5530    0.7136 C.3       1 <0>        -0.0774
     14 C14         3.7927   -1.9768    2.8763 C.3       1 <0>        -0.0953
     15 C15         6.1855   -2.0390    2.0766 C.3       1 <0>        -0.0906
     16 C16         4.6595    3.2577   -3.3009 C.3       1 <0>        -0.0871
     17 C17         7.3760    4.3986   -6.7074 C.3       1 <0>        -0.0716
     18 C18         5.3367    2.3027   -4.2819 C.3       1 <0>         0.1333
     19 C19         6.2012    3.5529   -6.1864 C.3       1 <0>         0.1246
     20 C20         5.7868    4.1659   -2.8575 C.3       1 <0>         0.0606
     21 C21         5.1166   -1.2051    2.7954 C.3       1 <0>         0.1012
     22 C22         8.3797    4.8486   -5.6198 C.3       1 <0>         0.1554
     23 C23         9.1441    6.0926   -6.0861 C.3       1 <0>        -0.0356
     24 C24         7.6485    3.7409    2.8432 C.3       1 <0>        -0.0795
     25 C25         8.2774    4.8743    3.6620 C.3       1 <0>        -0.1203
     26 C26         6.9719    4.2276    1.5544 C.3       1 <0>        -0.0920
     27 C27         8.9284    4.3945    4.9589 C.3       1 <0>         0.1502
     28 C28         6.2906    3.1130    0.7514 C.3       1 <0>         0.0224
     29 N1          6.7058    4.1331   -3.9791 N.am      1 <0>        -0.3553
     30 N2          6.4777    3.0462   -4.8435 N.3       1 <0>        -0.4320
     31 N3          9.3531    3.7833   -5.3380 N.3       1 <0>        -0.9031
     32 N4          9.4866    5.5266    5.6910 N.3       1 <0>        -0.9068
     33 N5          4.9185    0.0703    2.1034 N.am      1 <0>        -0.5526
     34 N6          5.7762    3.5917   -0.5046 N.am      1 <0>        -0.5576
     35 O1          7.8821    6.0807   -3.5877 O.2       1 <0>        -0.6710
     36 O2          4.0675    2.7325    1.6631 O.2       1 <0>        -0.4901
     37 O3          6.5432    1.3575    3.2076 O.2       1 <0>        -0.5902
     38 O4          7.6924    3.2783   -1.7917 O.2       1 <0>        -0.5833
     39 H1         11.7147    5.1800  -10.7084 H         1 <0>         0.1320
     40 H2         12.8515    4.7366   -8.5485 H         1 <0>         0.1324
     41 H3          9.3897    6.0452  -10.7320 H         1 <0>         0.1328
     42 H4         11.6716    5.1554   -6.4159 H         1 <0>         0.1324
     43 H5          8.2009    6.4675   -8.6050 H         1 <0>         0.1434
     44 H6          4.5658   -4.2441    1.3831 H         1 <0>         0.0405
     45 H7          4.0603   -3.6053   -0.1786 H         1 <0>         0.0421
     46 H8          3.0404   -1.6452    0.8762 H         1 <0>         0.0362
     47 H9          2.4207   -3.1017    1.6461 H         1 <0>         0.0439
     48 H10         6.4885   -3.2066    0.2859 H         1 <0>         0.0350
     49 H11         5.5989   -1.7111    0.0213 H         1 <0>         0.0428
     50 H12         3.0117   -1.3414    3.3113 H         1 <0>         0.0663
     51 H13         3.9201   -2.8316    3.5526 H         1 <0>         0.0466
     52 H14         6.4506   -2.8975    2.7070 H         1 <0>         0.0493
     53 H15         7.0997   -1.4475    1.9449 H         1 <0>         0.0520
     54 H16         3.9023    3.8458   -3.8340 H         1 <0>         0.0915
     55 H17         4.1709    2.7289   -2.4768 H         1 <0>         0.0601
     56 H18         7.9078    3.8408   -7.4902 H         1 <0>         0.0688
     57 H19         6.9559    5.2827   -7.2061 H         1 <0>         0.0630
     58 H20         5.7303    1.4383   -3.7336 H         1 <0>         0.0807
     59 H21         4.6390    1.9190   -5.0344 H         1 <0>         0.0380
     60 H22         5.2889    4.1652   -6.1941 H         1 <0>         0.0484
     61 H23         6.0298    2.7205   -6.8794 H         1 <0>         0.0697
     62 H24         5.4651    5.1881   -2.6391 H         1 <0>         0.0843
     63 H25         5.4601   -0.9499    3.8034 H         1 <0>         0.0831
     64 H26         9.8520    6.3858   -5.3087 H         1 <0>         0.0704
     65 H27         8.4405    6.9195   -6.1990 H         1 <0>         0.0718
     66 H28         8.4445    3.0306    2.5915 H         1 <0>         0.0606
     67 H29         6.9275    3.2007    3.4679 H         1 <0>         0.0458
     68 H30         9.0354    5.3625    3.0356 H         1 <0>         0.0375
     69 H31         7.5157    5.6329    3.8824 H         1 <0>         0.0392
     70 H32         7.7210    4.7221    0.9235 H         1 <0>         0.0606
     71 H33         6.2174    4.9831    1.8035 H         1 <0>         0.0579
     72 H34         9.7251    3.6753    4.7403 H         1 <0>         0.0571
     73 H35         8.1937    3.8977    5.5994 H         1 <0>         0.0503
     74 H36         7.0421    2.3587    0.4881 H         1 <0>         0.0993
     75 H37         9.0331    2.8434   -5.3754 H         1 <0>         0.3700
     76 H38        10.2196    4.0460   -4.9287 H         1 <0>         0.3660
     77 H39        10.0430    5.3371    6.4969 H         1 <0>         0.3465
     78 H40         9.1331    6.4373    5.4892 H         1 <0>         0.3446
     79 H41         4.2076    0.1245    1.3800 H         1 <0>         0.3148
     80 H42         4.8120    3.9176   -0.5391 H         1 <0>         0.3220
@<TRIPOS>BOND
     1    1    2 ar
     2    1    3 ar
     3    2    4 ar
     4    3    5 ar
     5    4    6 ar
     6    5    6 ar
     7    6   23 1
     8    7   22 1
     9    7   29 am
    10    7   35 2
    11    8    9 1
    12    8   28 1
    13    8   36 2
    14    9   33 am
    15    9   37 2
    16   10   20 1
    17   10   34 am
    18   10   38 2
    19   11   12 1
    20   11   13 1
    21   12   14 1
    22   13   15 1
    23   14   21 1
    24   15   21 1
    25   16   18 1
    26   16   20 1
    27   17   19 1
    28   17   22 1
    29   18   30 1
    30   19   30 1
    31   20   29 1
    32   21   33 1
    33   22   23 1
    34   22   31 1
    35   24   25 1
    36   24   26 1
    37   25   27 1
    38   26   28 1
    39   27   32 1
    40   28   34 1
    41   29   30 1
    42    1   39 1
    43    2   40 1
    44    3   41 1
    45    4   42 1
    46    5   43 1
    47   11   44 1
    48   11   45 1
    49   12   46 1
    50   12   47 1
    51   13   48 1
    52   13   49 1
    53   14   50 1
    54   14   51 1
    55   15   52 1
    56   15   53 1
    57   16   54 1
    58   16   55 1
    59   17   56 1
    60   17   57 1
    61   18   58 1
    62   18   59 1
    63   19   60 1
    64   19   61 1
    65   20   62 1
    66   21   63 1
    67   23   64 1
    68   23   65 1
    69   24   66 1
    70   24   67 1
    71   25   68 1
    72   25   69 1
    73   26   70 1
    74   26   71 1
    75   27   72 1
    76   27   73 1
    77   28   74 1
    78   31   75 1
    79   31   76 1
    80   32   77 1
    81   32   78 1
    82   33   79 1
    83   34   80 1
@<TRIPOS>MOLECULE
1a46_ligand_378
   80    83     0     0     0
SMALL
USER_CHARGES

mmff94s_NoEstat = 93.54
@<TRIPOS>ATOM
      1 C1         11.1945    5.3647   -9.7731 C.ar      1 <0>        -0.1300
      2 C2         11.8337    5.1154   -8.5586 C.ar      1 <0>        -0.1323
      3 C3          9.8873    5.8513   -9.7863 C.ar      1 <0>        -0.1309
      4 C4         11.1656    5.3526   -7.3573 C.ar      1 <0>        -0.1275
      5 C5          9.2192    6.0884   -8.5850 C.ar      1 <0>        -0.1272
      6 C6          9.8628    5.8375   -7.3783 C.ar      1 <0>        -0.0843
      7 C7          7.6425    5.1042   -4.2977 C.2       1 <0>         0.6709
      8 C8          5.2358    2.3798    1.5634 C.2       1 <0>         0.4867
      9 C9          5.6457    1.7076    2.8411 C.2       1 <0>         0.5883
     10 C10         6.5256    3.6321   -1.6689 C.2       1 <0>         0.6572
     11 C11         7.4984   -2.8604    2.5281 C.3       1 <0>        -0.0802
     12 C12         6.0870   -2.3778    2.8521 C.3       1 <0>        -0.0765
     13 C13         8.4450   -1.6988    2.2377 C.3       1 <0>        -0.0774
     14 C14         6.0898   -1.3509    3.9853 C.3       1 <0>        -0.0953
     15 C15         8.4424   -0.6737    3.3726 C.3       1 <0>        -0.0906
     16 C16         4.6595    3.2577   -3.3009 C.3       1 <0>        -0.0871
     17 C17         7.3760    4.3986   -6.7074 C.3       1 <0>        -0.0716
     18 C18         5.3367    2.3027   -4.2819 C.3       1 <0>         0.1333
     19 C19         6.2012    3.5529   -6.1864 C.3       1 <0>         0.1246
     20 C20         5.7868    4.1659   -2.8575 C.3       1 <0>         0.0606
     21 C21         7.0342   -0.1713    3.7178 C.3       1 <0>         0.1012
     22 C22         8.3797    4.8486   -5.6198 C.3       1 <0>         0.1554
     23 C23         9.1441    6.0926   -6.0861 C.3       1 <0>        -0.0356
     24 C24         7.6485    3.7409    2.8432 C.3       1 <0>        -0.0795
     25 C25         8.2774    4.8743    3.6620 C.3       1 <0>        -0.1203
     26 C26         6.9719    4.2276    1.5544 C.3       1 <0>        -0.0920
     27 C27         8.9284    4.3945    4.9589 C.3       1 <0>         0.1502
     28 C28         6.2906    3.1130    0.7514 C.3       1 <0>         0.0224
     29 N1          6.7058    4.1331   -3.9791 N.am      1 <0>        -0.3553
     30 N2          6.4777    3.0462   -4.8435 N.3       1 <0>        -0.4320
     31 N3          9.3531    3.7833   -5.3380 N.3       1 <0>        -0.9031
     32 N4          9.4866    5.5266    5.6910 N.3       1 <0>        -0.9068
     33 N5          6.5118    0.6599    2.6310 N.am      1 <0>        -0.5526
     34 N6          5.7762    3.5917   -0.5046 N.am      1 <0>        -0.5576
     35 O1          7.8821    6.0807   -3.5877 O.2       1 <0>        -0.6710
     36 O2          4.0412    2.3628    1.2952 O.2       1 <0>        -0.4901
     37 O3          5.1730    2.1266    3.8850 O.2       1 <0>        -0.5902
     38 O4          7.6924    3.2783   -1.7917 O.2       1 <0>        -0.5833
     39 H1         11.7147    5.1800  -10.7084 H         1 <0>         0.1320
     40 H2         12.8515    4.7366   -8.5485 H         1 <0>         0.1324
     41 H3          9.3897    6.0452  -10.7320 H         1 <0>         0.1328
     42 H4         11.6716    5.1554   -6.4159 H         1 <0>         0.1324
     43 H5          8.2009    6.4675   -8.6050 H         1 <0>         0.1434
     44 H6          7.8861   -3.4409    3.3744 H         1 <0>         0.0405
     45 H7          7.4684   -3.5363    1.6660 H         1 <0>         0.0421
     46 H8          5.6358   -1.9383    1.9543 H         1 <0>         0.0362
     47 H9          5.4623   -3.2331    3.1340 H         1 <0>         0.0439
     48 H10         9.4616   -2.0812    2.0913 H         1 <0>         0.0350
     49 H11         8.1510   -1.2136    1.2991 H         1 <0>         0.0428
     50 H12         5.0674   -0.9870    4.1440 H         1 <0>         0.0663
     51 H13         6.3973   -1.8492    4.9135 H         1 <0>         0.0466
     52 H14         8.8852   -1.1330    4.2655 H         1 <0>         0.0493
     53 H15         9.0866    0.1701    3.0968 H         1 <0>         0.0520
     54 H16         3.9023    3.8458   -3.8340 H         1 <0>         0.0915
     55 H17         4.1709    2.7289   -2.4768 H         1 <0>         0.0601
     56 H18         7.9078    3.8408   -7.4902 H         1 <0>         0.0688
     57 H19         6.9559    5.2827   -7.2061 H         1 <0>         0.0630
     58 H20         5.7303    1.4383   -3.7336 H         1 <0>         0.0807
     59 H21         4.6390    1.9190   -5.0344 H         1 <0>         0.0380
     60 H22         5.2889    4.1652   -6.1941 H         1 <0>         0.0484
     61 H23         6.0298    2.7205   -6.8794 H         1 <0>         0.0697
     62 H24         5.4651    5.1881   -2.6391 H         1 <0>         0.0843
     63 H25         7.0767    0.4778    4.5987 H         1 <0>         0.0831
     64 H26         9.8520    6.3858   -5.3087 H         1 <0>         0.0704
     65 H27         8.4405    6.9195   -6.1990 H         1 <0>         0.0718
     66 H28         8.4445    3.0306    2.5915 H         1 <0>         0.0606
     67 H29         6.9275    3.2007    3.4679 H         1 <0>         0.0458
     68 H30         9.0354    5.3625    3.0356 H         1 <0>         0.0375
     69 H31         7.5157    5.6329    3.8824 H         1 <0>         0.0392
     70 H32         7.7210    4.7221    0.9235 H         1 <0>         0.0606
     71 H33         6.2174    4.9831    1.8035 H         1 <0>         0.0579
     72 H34         9.7251    3.6753    4.7403 H         1 <0>         0.0571
     73 H35         8.1937    3.8977    5.5994 H         1 <0>         0.0503
     74 H36         7.0421    2.3587    0.4881 H         1 <0>         0.0993
     75 H37         9.0331    2.8434   -5.3754 H         1 <0>         0.3700
     76 H38        10.2196    4.0460   -4.9287 H         1 <0>         0.3660
     77 H39        10.0430    5.3371    6.4969 H         1 <0>         0.3465
     78 H40         9.1331    6.4373    5.4892 H         1 <0>         0.3446
     79 H41         6.8020    0.4535    1.6799 H         1 <0>         0.3148
     80 H42         4.8120    3.9176   -0.5391 H         1 <0>         0.3220
@<TRIPOS>BOND
     1    1    2 ar
     2    1    3 ar
     3    2    4 ar
     4    3    5 ar
     5    4    6 ar
     6    5    6 ar
     7    6   23 1
     8    7   22 1
     9    7   29 am
    10    7   35 2
    11    8    9 1
    12    8   28 1
    13    8   36 2
    14    9   33 am
    15    9   37 2
    16   10   20 1
    17   10   34 am
    18   10   38 2
    19   11   12 1
    20   11   13 1
    21   12   14 1
    22   13   15 1
    23   14   21 1
    24   15   21 1
    25   16   18 1
    26   16   20 1
    27   17   19 1
    28   17   22 1
    29   18   30 1
    30   19   30 1
    31   20   29 1
    32   21   33 1
    33   22   23 1
    34   22   31 1
    35   24   25 1
    36   24   26 1
    37   25   27 1
    38   26   28 1
    39   27   32 1
    40   28   34 1
    41   29   30 1
    42    1   39 1
    43    2   40 1
    44    3   41 1
    45    4   42 1
    46    5   43 1
    47   11   44 1
    48   11   45 1
    49   12   46 1
    50   12   47 1
    51   13   48 1
    52   13   49 1
    53   14   50 1
    54   14   51 1
    55   15   52 1
    56   15   53 1
    57   16   54 1
    58   16   55 1
    59   17   56 1
    60   17   57 1
    61   18   58 1
    62   18   59 1
    63   19   60 1
    64   19   61 1
    65   20   62 1
    66   21   63 1
    67   23   64 1
    68   23   65 1
    69   24   66 1
    70   24   67 1
    71   25   68 1
    72   25   69 1
    73   26   70 1
    74   26   71 1
    75   27   72 1
    76   27   73 1
    77   28   74 1
    78   31   75 1
    79   31   76 1
    80   32   77 1
    81   32   78 1
    82   33   79 1
    83   34   80 1
@<TRIPOS>MOLECULE
1a46_ligand_379
   80    83     0     0     0
SMALL
USER_CHARGES

mmff94s_NoEstat = 93.65
@<TRIPOS>ATOM
      1 C1          9.3427    1.2226  -10.2936 C.ar      1 <0>        -0.1300
      2 C2          9.9666    0.8172   -9.1138 C.ar      1 <0>        -0.1323
      3 C3          8.4336    2.2805  -10.2739 C.ar      1 <0>        -0.1309
      4 C4          9.6814    1.4695   -7.9143 C.ar      1 <0>        -0.1275
      5 C5          8.1485    2.9328   -9.0744 C.ar      1 <0>        -0.1272
      6 C6          8.7742    2.5231   -7.9024 C.ar      1 <0>        -0.0843
      7 C7          6.9710    3.2795   -4.5657 C.2       1 <0>         0.6709
      8 C8          5.2358    2.3798    1.5634 C.2       1 <0>         0.4867
      9 C9          5.6457    1.7076    2.8411 C.2       1 <0>         0.5883
     10 C10         5.7098    2.8119   -1.6475 C.2       1 <0>         0.6572
     11 C11         8.8102   -2.1772    2.4201 C.3       1 <0>        -0.0802
     12 C12         7.2912   -2.2999    2.3329 C.3       1 <0>        -0.0765
     13 C13         9.2558   -0.7274    2.5910 C.3       1 <0>        -0.0774
     14 C14         6.6034   -1.6313    3.5239 C.3       1 <0>        -0.0953
     15 C15         8.5635   -0.0627    3.7817 C.3       1 <0>        -0.0906
     16 C16         3.6624    3.2324   -3.0320 C.3       1 <0>        -0.0871
     17 C17         6.0388    2.5547   -6.7975 C.3       1 <0>        -0.0716
     18 C18         3.6514    1.9752   -3.8994 C.3       1 <0>         0.1333
     19 C19         4.6996    2.4463   -6.0480 C.3       1 <0>         0.1246
     20 C20         5.1372    3.5153   -2.8394 C.3       1 <0>         0.0606
     21 C21         7.0342   -0.1713    3.7178 C.3       1 <0>         0.1012
     22 C22         7.2891    2.5653   -5.8869 C.3       1 <0>         0.1554
     23 C23         8.4675    3.2247   -6.6121 C.3       1 <0>        -0.0356
     24 C24         7.6485    3.7409    2.8432 C.3       1 <0>        -0.0795
     25 C25         8.2774    4.8743    3.6620 C.3       1 <0>        -0.1203
     26 C26         6.9719    4.2276    1.5544 C.3       1 <0>        -0.0920
     27 C27         8.9284    4.3945    4.9589 C.3       1 <0>         0.1502
     28 C28         6.2906    3.1130    0.7514 C.3       1 <0>         0.0224
     29 N1          5.7488    2.9259   -4.0152 N.am      1 <0>        -0.3553
     30 N2          4.9069    2.0073   -4.6693 N.3       1 <0>        -0.4320
     31 N3          7.6768    1.1953   -5.5201 N.3       1 <0>        -0.9031
     32 N4          9.4866    5.5266    5.6910 N.3       1 <0>        -0.9068
     33 N5          6.5118    0.6599    2.6310 N.am      1 <0>        -0.5526
     34 N6          5.7762    3.5917   -0.5046 N.am      1 <0>        -0.5576
     35 O1          7.7474    4.0812   -4.0464 O.2       1 <0>        -0.6710
     36 O2          4.0412    2.3628    1.2952 O.2       1 <0>        -0.4901
     37 O3          5.1730    2.1266    3.8850 O.2       1 <0>        -0.5902
     38 O4          6.0670    1.6440   -1.7490 O.2       1 <0>        -0.5833
     39 H1          9.5646    0.7147  -11.2275 H         1 <0>         0.1320
     40 H2         10.6743   -0.0064   -9.1292 H         1 <0>         0.1324
     41 H3          7.9478    2.5960  -11.1926 H         1 <0>         0.1328
     42 H4         10.1723    1.1467   -7.0000 H         1 <0>         0.1324
     43 H5          7.4388    3.7559   -9.0687 H         1 <0>         0.1434
     44 H6          9.1735   -2.7703    3.2685 H         1 <0>         0.0405
     45 H7          9.2669   -2.5997    1.5179 H         1 <0>         0.0421
     46 H8          6.9407   -1.8448    1.3987 H         1 <0>         0.0362
     47 H9          7.0101   -3.3586    2.2941 H         1 <0>         0.0439
     48 H10        10.3421   -0.6911    2.7313 H         1 <0>         0.0350
     49 H11         9.0361   -0.1670    1.6742 H         1 <0>         0.0428
     50 H12         5.5163   -1.6894    3.3910 H         1 <0>         0.0663
     51 H13         6.8429   -2.1965    4.4337 H         1 <0>         0.0466
     52 H14         8.9157   -0.5376    4.7063 H         1 <0>         0.0493
     53 H15         8.8649    0.9907    3.8310 H         1 <0>         0.0520
     54 H16         3.1996    4.0578   -3.5869 H         1 <0>         0.0915
     55 H17         3.1150    3.0948   -2.0945 H         1 <0>         0.0601
     56 H18         6.1186    1.7328   -7.5220 H         1 <0>         0.0688
     57 H19         6.0134    3.4760   -7.3953 H         1 <0>         0.0630
     58 H20         3.6705    1.0888   -3.2538 H         1 <0>         0.0807
     59 H21         2.7495    1.9066   -4.5175 H         1 <0>         0.0380
     60 H22         4.1937    3.4213   -6.0771 H         1 <0>         0.0484
     61 H23         4.0529    1.7380   -6.5798 H         1 <0>         0.0697
     62 H24         5.3721    4.5807   -2.7630 H         1 <0>         0.0843
     63 H25         6.5946    0.2267    4.6384 H         1 <0>         0.0831
     64 H26         9.3395    3.2124   -5.9558 H         1 <0>         0.0704
     65 H27         8.2279    4.2735   -6.7972 H         1 <0>         0.0718
     66 H28         8.4445    3.0306    2.5915 H         1 <0>         0.0606
     67 H29         6.9275    3.2007    3.4679 H         1 <0>         0.0458
     68 H30         9.0354    5.3625    3.0356 H         1 <0>         0.0375
     69 H31         7.5157    5.6329    3.8824 H         1 <0>         0.0392
     70 H32         7.7210    4.7221    0.9235 H         1 <0>         0.0606
     71 H33         6.2174    4.9831    1.8035 H         1 <0>         0.0579
     72 H34         9.7251    3.6753    4.7403 H         1 <0>         0.0571
     73 H35         8.1937    3.8977    5.5994 H         1 <0>         0.0503
     74 H36         7.0421    2.3587    0.4881 H         1 <0>         0.0993
     75 H37         6.9507    0.5323   -5.3773 H         1 <0>         0.3700
     76 H38         8.6161    1.0420   -5.2343 H         1 <0>         0.3660
     77 H39        10.0430    5.3371    6.4969 H         1 <0>         0.3465
     78 H40         9.1331    6.4373    5.4892 H         1 <0>         0.3446
     79 H41         6.8020    0.4535    1.6799 H         1 <0>         0.3148
     80 H42         5.4441    4.5531   -0.5557 H         1 <0>         0.3220
@<TRIPOS>BOND
     1    1    2 ar
     2    1    3 ar
     3    2    4 ar
     4    3    5 ar
     5    4    6 ar
     6    5    6 ar
     7    6   23 1
     8    7   22 1
     9    7   29 am
    10    7   35 2
    11    8    9 1
    12    8   28 1
    13    8   36 2
    14    9   33 am
    15    9   37 2
    16   10   20 1
    17   10   34 am
    18   10   38 2
    19   11   12 1
    20   11   13 1
    21   12   14 1
    22   13   15 1
    23   14   21 1
    24   15   21 1
    25   16   18 1
    26   16   20 1
    27   17   19 1
    28   17   22 1
    29   18   30 1
    30   19   30 1
    31   20   29 1
    32   21   33 1
    33   22   23 1
    34   22   31 1
    35   24   25 1
    36   24   26 1
    37   25   27 1
    38   26   28 1
    39   27   32 1
    40   28   34 1
    41   29   30 1
    42    1   39 1
    43    2   40 1
    44    3   41 1
    45    4   42 1
    46    5   43 1
    47   11   44 1
    48   11   45 1
    49   12   46 1
    50   12   47 1
    51   13   48 1
    52   13   49 1
    53   14   50 1
    54   14   51 1
    55   15   52 1
    56   15   53 1
    57   16   54 1
    58   16   55 1
    59   17   56 1
    60   17   57 1
    61   18   58 1
    62   18   59 1
    63   19   60 1
    64   19   61 1
    65   20   62 1
    66   21   63 1
    67   23   64 1
    68   23   65 1
    69   24   66 1
    70   24   67 1
    71   25   68 1
    72   25   69 1
    73   26   70 1
    74   26   71 1
    75   27   72 1
    76   27   73 1
    77   28   74 1
    78   31   75 1
    79   31   76 1
    80   32   77 1
    81   32   78 1
    82   33   79 1
    83   34   80 1
@<TRIPOS>MOLECULE
1a46_ligand_380
   80    83     0     0     0
SMALL
USER_CHARGES

mmff94s_NoEstat = 93.74
@<TRIPOS>ATOM
      1 C1          5.9504   -1.3642  -10.1903 C.ar      1 <0>        -0.1300
      2 C2          6.6765   -1.8241   -9.0918 C.ar      1 <0>        -0.1323
      3 C3          5.5463   -0.0305  -10.2504 C.ar      1 <0>        -0.1309
      4 C4          6.9984   -0.9504   -8.0532 C.ar      1 <0>        -0.1275
      5 C5          5.8681    0.8432   -9.2119 C.ar      1 <0>        -0.1272
      6 C6          6.5921    0.3776   -8.1201 C.ar      1 <0>        -0.0843
      7 C7          6.1974    2.2868   -4.7798 C.2       1 <0>         0.6709
      8 C8          5.2358    2.3798    1.5634 C.2       1 <0>         0.4867
      9 C9          5.6457    1.7076    2.8411 C.2       1 <0>         0.5883
     10 C10         5.7098    2.8119   -1.6475 C.2       1 <0>         0.6572
     11 C11         9.7235   -1.0796    2.8207 C.3       1 <0>        -0.0802
     12 C12         8.4526   -1.6930    2.2388 C.3       1 <0>        -0.0765
     13 C13         9.4972    0.3517    3.3002 C.3       1 <0>        -0.0774
     14 C14         7.2832   -1.6014    3.2201 C.3       1 <0>        -0.0953
     15 C15         8.3255    0.4384    4.2793 C.3       1 <0>        -0.0906
     16 C16         3.6723    3.8570   -2.6681 C.3       1 <0>        -0.0871
     17 C17         4.4858    1.7161   -6.5463 C.3       1 <0>        -0.0716
     18 C18         2.9535    2.6133   -3.1875 C.3       1 <0>         0.1333
     19 C19         3.4659    2.2898   -5.5476 C.3       1 <0>         0.1246
     20 C20         5.1372    3.5153   -2.8394 C.3       1 <0>         0.0606
     21 C21         7.0342   -0.1713    3.7178 C.3       1 <0>         0.1012
     22 C22         5.8481    1.3265   -5.9256 C.3       1 <0>         0.1554
     23 C23         6.9383    1.3175   -7.0029 C.3       1 <0>        -0.0356
     24 C24         7.6485    3.7409    2.8432 C.3       1 <0>        -0.0795
     25 C25         8.2774    4.8743    3.6620 C.3       1 <0>        -0.1203
     26 C26         6.9719    4.2276    1.5544 C.3       1 <0>        -0.0920
     27 C27         8.9284    4.3945    4.9589 C.3       1 <0>         0.1502
     28 C28         6.2906    3.1130    0.7514 C.3       1 <0>         0.0224
     29 N1          5.1345    2.5635   -3.9339 N.am      1 <0>        -0.3553
     30 N2          3.8653    2.0037   -4.1710 N.3       1 <0>        -0.4320
     31 N3          5.7803   -0.0123   -5.3216 N.3       1 <0>        -0.9031
     32 N4          9.4866    5.5266    5.6910 N.3       1 <0>        -0.9068
     33 N5          6.5118    0.6599    2.6310 N.am      1 <0>        -0.5526
     34 N6          5.7762    3.5917   -0.5046 N.am      1 <0>        -0.5576
     35 O1          7.3278    2.7504   -4.6301 O.2       1 <0>        -0.6710
     36 O2          4.0412    2.3628    1.2952 O.2       1 <0>        -0.4901
     37 O3          5.1730    2.1266    3.8850 O.2       1 <0>        -0.5902
     38 O4          6.0670    1.6440   -1.7490 O.2       1 <0>        -0.5833
     39 H1          5.6997   -2.0446  -10.9989 H         1 <0>         0.1320
     40 H2          6.9911   -2.8626   -9.0451 H         1 <0>         0.1324
     41 H3          4.9808    0.3274  -11.1059 H         1 <0>         0.1328
     42 H4          7.5644   -1.3176   -7.2012 H         1 <0>         0.1324
     43 H5          5.5489    1.8806   -9.2673 H         1 <0>         0.1434
     44 H6         10.0697   -1.6931    3.6617 H         1 <0>         0.0405
     45 H7         10.5190   -1.0948    2.0671 H         1 <0>         0.0421
     46 H8          8.1939   -1.1805    1.3044 H         1 <0>         0.0362
     47 H9          8.6355   -2.7431    1.9836 H         1 <0>         0.0439
     48 H10        10.4072    0.7253    3.7834 H         1 <0>         0.0350
     49 H11         9.3078    1.0008    2.4368 H         1 <0>         0.0428
     50 H12         6.3793   -1.9968    2.7410 H         1 <0>         0.0663
     51 H13         7.4938   -2.2464    4.0826 H         1 <0>         0.0466
     52 H14         8.5960   -0.0894    5.2028 H         1 <0>         0.0493
     53 H15         8.1600    1.4882    4.5503 H         1 <0>         0.0520
     54 H16         3.4181    4.7133   -3.3051 H         1 <0>         0.0915
     55 H17         3.3944    4.0971   -1.6373 H         1 <0>         0.0601
     56 H18         4.0497    0.8441   -7.0524 H         1 <0>         0.0688
     57 H19         4.6431    2.4675   -7.3320 H         1 <0>         0.0630
     58 H20         2.8170    1.9026   -2.3635 H         1 <0>         0.0807
     59 H21         1.9588    2.8453   -3.5837 H         1 <0>         0.0380
     60 H22         3.3744    3.3723   -5.7123 H         1 <0>         0.0484
     61 H23         2.4818    1.8533   -5.7569 H         1 <0>         0.0697
     62 H24         5.7646    4.3810   -3.0694 H         1 <0>         0.0843
     63 H25         6.2589   -0.1767    4.4911 H         1 <0>         0.0831
     64 H26         7.8868    1.0311   -6.5450 H         1 <0>         0.0704
     65 H27         7.0672    2.3317   -7.3854 H         1 <0>         0.0718
     66 H28         8.4445    3.0306    2.5915 H         1 <0>         0.0606
     67 H29         6.9275    3.2007    3.4679 H         1 <0>         0.0458
     68 H30         9.0354    5.3625    3.0356 H         1 <0>         0.0375
     69 H31         7.5157    5.6329    3.8824 H         1 <0>         0.0392
     70 H32         7.7210    4.7221    0.9235 H         1 <0>         0.0606
     71 H33         6.2174    4.9831    1.8035 H         1 <0>         0.0579
     72 H34         9.7251    3.6753    4.7403 H         1 <0>         0.0571
     73 H35         8.1937    3.8977    5.5994 H         1 <0>         0.0503
     74 H36         7.0421    2.3587    0.4881 H         1 <0>         0.0993
     75 H37         4.9287   -0.2795   -4.8849 H         1 <0>         0.3700
     76 H38         6.6336   -0.5056   -5.1950 H         1 <0>         0.3660
     77 H39        10.0430    5.3371    6.4969 H         1 <0>         0.3465
     78 H40         9.1331    6.4373    5.4892 H         1 <0>         0.3446
     79 H41         6.8020    0.4535    1.6799 H         1 <0>         0.3148
     80 H42         5.4441    4.5531   -0.5557 H         1 <0>         0.3220
@<TRIPOS>BOND
     1    1    2 ar
     2    1    3 ar
     3    2    4 ar
     4    3    5 ar
     5    4    6 ar
     6    5    6 ar
     7    6   23 1
     8    7   22 1
     9    7   29 am
    10    7   35 2
    11    8    9 1
    12    8   28 1
    13    8   36 2
    14    9   33 am
    15    9   37 2
    16   10   20 1
    17   10   34 am
    18   10   38 2
    19   11   12 1
    20   11   13 1
    21   12   14 1
    22   13   15 1
    23   14   21 1
    24   15   21 1
    25   16   18 1
    26   16   20 1
    27   17   19 1
    28   17   22 1
    29   18   30 1
    30   19   30 1
    31   20   29 1
    32   21   33 1
    33   22   23 1
    34   22   31 1
    35   24   25 1
    36   24   26 1
    37   25   27 1
    38   26   28 1
    39   27   32 1
    40   28   34 1
    41   29   30 1
    42    1   39 1
    43    2   40 1
    44    3   41 1
    45    4   42 1
    46    5   43 1
    47   11   44 1
    48   11   45 1
    49   12   46 1
    50   12   47 1
    51   13   48 1
    52   13   49 1
    53   14   50 1
    54   14   51 1
    55   15   52 1
    56   15   53 1
    57   16   54 1
    58   16   55 1
    59   17   56 1
    60   17   57 1
    61   18   58 1
    62   18   59 1
    63   19   60 1
    64   19   61 1
    65   20   62 1
    66   21   63 1
    67   23   64 1
    68   23   65 1
    69   24   66 1
    70   24   67 1
    71   25   68 1
    72   25   69 1
    73   26   70 1
    74   26   71 1
    75   27   72 1
    76   27   73 1
    77   28   74 1
    78   31   75 1
    79   31   76 1
    80   32   77 1
    81   32   78 1
    82   33   79 1
    83   34   80 1
@<TRIPOS>MOLECULE
1a46_ligand_381
   80    83     0     0     0
SMALL
USER_CHARGES

mmff94s_NoEstat = 93.76
@<TRIPOS>ATOM
      1 C1         10.9138    9.4482   -8.1015 C.ar      1 <0>        -0.1300
      2 C2         11.4397    9.2331   -6.8277 C.ar      1 <0>        -0.1323
      3 C3          9.5409    9.3301   -8.3183 C.ar      1 <0>        -0.1309
      4 C4         10.5929    8.8997   -5.7706 C.ar      1 <0>        -0.1275
      5 C5          8.6940    8.9967   -7.2613 C.ar      1 <0>        -0.1272
      6 C6          9.2255    8.7837   -5.9943 C.ar      1 <0>        -0.0843
      7 C7          7.2127    6.5340   -3.5767 C.2       1 <0>         0.6709
      8 C8          5.2358    2.3798    1.5634 C.2       1 <0>         0.4867
      9 C9          4.0737    1.7586    0.8450 C.2       1 <0>         0.5883
     10 C10         6.5648    4.1956   -1.4701 C.2       1 <0>         0.6572
     11 C11         5.1813   -1.4375   -2.8753 C.3       1 <0>        -0.0802
     12 C12         5.0478    0.0721   -3.0578 C.3       1 <0>        -0.0765
     13 C13         4.9968   -1.8536   -1.4184 C.3       1 <0>        -0.0774
     14 C14         3.7316    0.5945   -2.4806 C.3       1 <0>        -0.0953
     15 C15         3.6804   -1.3269   -0.8452 C.3       1 <0>        -0.0906
     16 C16         5.2894    3.4365   -3.4907 C.3       1 <0>        -0.0871
     17 C17         7.5966    6.3248   -6.0635 C.3       1 <0>        -0.0716
     18 C18         6.4415    3.0935   -4.4329 C.3       1 <0>         0.1333
     19 C19         6.8768    4.9725   -5.9219 C.3       1 <0>         0.1246
     20 C20         5.8189    4.6139   -2.6998 C.3       1 <0>         0.0606
     21 C21         3.5216    0.1899   -1.0153 C.3       1 <0>         0.1012
     22 C22         8.1441    6.9065   -4.7389 C.3       1 <0>         0.1554
     23 C23         8.3146    8.4251   -4.8573 C.3       1 <0>        -0.0356
     24 C24         6.0158    5.3379    2.0114 C.3       1 <0>        -0.0795
     25 C25         6.7209    6.4716    2.7653 C.3       1 <0>        -0.1203
     26 C26         6.9719    4.2276    1.5544 C.3       1 <0>        -0.0920
     27 C27         7.8111    7.1584    1.9433 C.3       1 <0>         0.1502
     28 C28         6.2906    3.1130    0.7514 C.3       1 <0>         0.0224
     29 N1          6.7850    5.2155   -3.5990 N.am      1 <0>        -0.3553
     30 N2          7.1829    4.3503   -4.6352 N.3       1 <0>        -0.4320
     31 N3          9.4504    6.3160   -4.4124 N.3       1 <0>        -0.9031
     32 N4          8.4478    8.2096    2.7298 N.3       1 <0>        -0.9068
     33 N5          4.4695    0.8988   -0.1529 N.am      1 <0>        -0.5526
     34 N6          5.7762    3.5917   -0.5046 N.am      1 <0>        -0.5576
     35 O1          6.8943    7.3404   -2.7030 O.2       1 <0>        -0.6710
     36 O2          5.3022    2.1819    2.7699 O.2       1 <0>        -0.4901
     37 O3          2.9489    2.0822    1.1900 O.2       1 <0>        -0.5902
     38 O4          7.7705    4.4014   -1.3956 O.2       1 <0>        -0.5833
     39 H1         11.5731    9.7077   -8.9246 H         1 <0>         0.1320
     40 H2         12.5087    9.3251   -6.6590 H         1 <0>         0.1324
     41 H3          9.1315    9.4975   -9.3103 H         1 <0>         0.1328
     42 H4         11.0116    8.7339   -4.7816 H         1 <0>         0.1324
     43 H5          7.6258    8.9068   -7.4396 H         1 <0>         0.1434
     44 H6          4.4315   -1.9450   -3.4949 H         1 <0>         0.0405
     45 H7          6.1639   -1.7668   -3.2316 H         1 <0>         0.0421
     46 H8          5.8920    0.5752   -2.5711 H         1 <0>         0.0362
     47 H9          5.1042    0.3193   -4.1242 H         1 <0>         0.0439
     48 H10         5.0182   -2.9468   -1.3432 H         1 <0>         0.0350
     49 H11         5.8374   -1.4788   -0.8221 H         1 <0>         0.0428
     50 H12         3.7040    1.6866   -2.5780 H         1 <0>         0.0663
     51 H13         2.9012    0.2010   -3.0806 H         1 <0>         0.0466
     52 H14         2.8471   -1.8309   -1.3512 H         1 <0>         0.0493
     53 H15         3.6170   -1.5959    0.2162 H         1 <0>         0.0520
     54 H16         4.4210    3.7522   -4.0822 H         1 <0>         0.0915
     55 H17         4.9944    2.5859   -2.8686 H         1 <0>         0.0601
     56 H18         8.4161    6.2273   -6.7886 H         1 <0>         0.0688
     57 H19         6.8879    7.0354   -6.5102 H         1 <0>         0.0630
     58 H20         7.1117    2.3782   -3.9411 H         1 <0>         0.0807
     59 H21         6.0926    2.6259   -5.3603 H         1 <0>         0.0380
     60 H22         5.7950    5.1300   -6.0337 H         1 <0>         0.0484
     61 H23         7.1882    4.3180   -6.7448 H         1 <0>         0.0697
     62 H24         5.0453    5.3316   -2.4125 H         1 <0>         0.0843
     63 H25         2.5248    0.4986   -0.6837 H         1 <0>         0.0831
     64 H26         8.7103    8.8118   -3.9164 H         1 <0>         0.0704
     65 H27         7.3333    8.8822   -4.9974 H         1 <0>         0.0718
     66 H28         5.2579    4.9142    2.6804 H         1 <0>         0.0606
     67 H29         5.4809    5.7546    1.1500 H         1 <0>         0.0458
     68 H30         5.9611    7.2116    3.0490 H         1 <0>         0.0375
     69 H31         7.1444    6.0819    3.6996 H         1 <0>         0.0392
     70 H32         7.4599    3.7926    2.4354 H         1 <0>         0.0606
     71 H33         7.7645    4.6634    0.9347 H         1 <0>         0.0579
     72 H34         7.3831    7.5943    1.0341 H         1 <0>         0.0571
     73 H35         8.5787    6.4395    1.6422 H         1 <0>         0.0503
     74 H36         7.0421    2.3587    0.4881 H         1 <0>         0.0993
     75 H37         9.5975    5.3617   -4.6467 H         1 <0>         0.3700
     76 H38        10.0459    6.8226   -3.7991 H         1 <0>         0.3660
     77 H39         9.0956    8.8134    2.2707 H         1 <0>         0.3465
     78 H40         8.3746    8.1630    3.7236 H         1 <0>         0.3446
     79 H41         5.4635    0.7487   -0.2981 H         1 <0>         0.3148
     80 H42         4.7816    3.4809   -0.6931 H         1 <0>         0.3220
@<TRIPOS>BOND
     1    1    2 ar
     2    1    3 ar
     3    2    4 ar
     4    3    5 ar
     5    4    6 ar
     6    5    6 ar
     7    6   23 1
     8    7   22 1
     9    7   29 am
    10    7   35 2
    11    8    9 1
    12    8   28 1
    13    8   36 2
    14    9   33 am
    15    9   37 2
    16   10   20 1
    17   10   34 am
    18   10   38 2
    19   11   12 1
    20   11   13 1
    21   12   14 1
    22   13   15 1
    23   14   21 1
    24   15   21 1
    25   16   18 1
    26   16   20 1
    27   17   19 1
    28   17   22 1
    29   18   30 1
    30   19   30 1
    31   20   29 1
    32   21   33 1
    33   22   23 1
    34   22   31 1
    35   24   25 1
    36   24   26 1
    37   25   27 1
    38   26   28 1
    39   27   32 1
    40   28   34 1
    41   29   30 1
    42    1   39 1
    43    2   40 1
    44    3   41 1
    45    4   42 1
    46    5   43 1
    47   11   44 1
    48   11   45 1
    49   12   46 1
    50   12   47 1
    51   13   48 1
    52   13   49 1
    53   14   50 1
    54   14   51 1
    55   15   52 1
    56   15   53 1
    57   16   54 1
    58   16   55 1
    59   17   56 1
    60   17   57 1
    61   18   58 1
    62   18   59 1
    63   19   60 1
    64   19   61 1
    65   20   62 1
    66   21   63 1
    67   23   64 1
    68   23   65 1
    69   24   66 1
    70   24   67 1
    71   25   68 1
    72   25   69 1
    73   26   70 1
    74   26   71 1
    75   27   72 1
    76   27   73 1
    77   28   74 1
    78   31   75 1
    79   31   76 1
    80   32   77 1
    81   32   78 1
    82   33   79 1
    83   34   80 1
@<TRIPOS>MOLECULE
1a46_ligand_382
   80    83     0     0     0
SMALL
USER_CHARGES

mmff94s_NoEstat = 93.78
@<TRIPOS>ATOM
      1 C1         -2.6445   10.2618   -2.2387 C.ar      1 <0>        -0.1300
      2 C2         -2.3767    9.6884   -0.9957 C.ar      1 <0>        -0.1323
      3 C3         -2.1497    9.6701   -3.4009 C.ar      1 <0>        -0.1309
      4 C4         -1.6141    8.5233   -0.9148 C.ar      1 <0>        -0.1275
      5 C5         -1.3871    8.5049   -3.3201 C.ar      1 <0>        -0.1272
      6 C6         -1.1243    7.9391   -2.0776 C.ar      1 <0>        -0.0843
      7 C7          2.0326    5.7272   -1.7627 C.2       1 <0>         0.6709
      8 C8          5.2358    2.3798    1.5634 C.2       1 <0>         0.4867
      9 C9          4.9672    2.8271    2.9706 C.2       1 <0>         0.5883
     10 C10         4.7954    4.5647   -0.6048 C.2       1 <0>         0.6572
     11 C11         2.4922    7.0459    3.6579 C.3       1 <0>        -0.0802
     12 C12         3.9725    7.1522    3.3012 C.3       1 <0>        -0.0765
     13 C13         2.0229    5.5946    3.7154 C.3       1 <0>        -0.0774
     14 C14         4.8393    6.3122    4.2403 C.3       1 <0>        -0.0953
     15 C15         2.8941    4.7584    4.6538 C.3       1 <0>        -0.0906
     16 C16         5.5346    5.5870   -2.7713 C.3       1 <0>        -0.0871
     17 C17         1.6625    7.8714   -3.0437 C.3       1 <0>        -0.0716
     18 C18         5.3303    7.0689   -2.4625 C.3       1 <0>         0.1333
     19 C19         3.1731    7.8019   -3.3266 C.3       1 <0>         0.1246
     20 C20         4.4137    4.9104   -2.0113 C.3       1 <0>         0.0606
     21 C21         4.3883    4.8474    4.3160 C.3       1 <0>         0.1012
     22 C22         1.1885    7.0064   -1.8522 C.3       1 <0>         0.1554
     23 C23        -0.3040    6.6858   -1.9906 C.3       1 <0>        -0.0356
     24 C24         8.0800    4.9598    0.7851 C.3       1 <0>        -0.0795
     25 C25         8.7880    6.0338    1.6192 C.3       1 <0>        -0.1203
     26 C26         6.9719    4.2276    1.5544 C.3       1 <0>        -0.0920
     27 C27         9.9095    6.7454    0.8629 C.3       1 <0>         0.1502
     28 C28         6.2906    3.1130    0.7514 C.3       1 <0>         0.0224
     29 N1          3.3921    5.9372   -1.9343 N.am      1 <0>        -0.3553
     30 N2          3.8913    7.2279   -2.1903 N.3       1 <0>        -0.4320
     31 N3          1.3958    7.7147   -0.5806 N.3       1 <0>        -0.9031
     32 N4         10.5470    7.7366    1.7233 N.3       1 <0>        -0.9068
     33 N5          4.6631    4.1662    3.0490 N.am      1 <0>        -0.5526
     34 N6          5.7762    3.5917   -0.5046 N.am      1 <0>        -0.5576
     35 O1          1.5345    4.6231   -1.5437 O.2       1 <0>        -0.6710
     36 O2          4.5176    1.4899    1.1258 O.2       1 <0>        -0.4901
     37 O3          5.0632    1.9994    3.8620 O.2       1 <0>        -0.5902
     38 O4          4.2448    5.1367    0.3286 O.2       1 <0>        -0.5833
     39 H1         -3.2382   11.1691   -2.3016 H         1 <0>         0.1320
     40 H2         -2.7620   10.1493   -0.0908 H         1 <0>         0.1324
     41 H3         -2.3582   10.1168   -4.3687 H         1 <0>         0.1328
     42 H4         -1.4106    8.0836    0.0580 H         1 <0>         0.1324
     43 H5         -1.0058    8.0510   -4.2309 H         1 <0>         0.1434
     44 H6          2.3189    7.5216    4.6312 H         1 <0>         0.0405
     45 H7          1.8951    7.5980    2.9232 H         1 <0>         0.0421
     46 H8          4.1234    6.8253    2.2653 H         1 <0>         0.0362
     47 H9          4.2878    8.2008    3.3513 H         1 <0>         0.0439
     48 H10         0.9809    5.5587    4.0532 H         1 <0>         0.0350
     49 H11         2.0439    5.1635    2.7072 H         1 <0>         0.0428
     50 H12         5.8844    6.3686    3.9125 H         1 <0>         0.0663
     51 H13         4.7977    6.7495    5.2460 H         1 <0>         0.0466
     52 H14         2.7407    5.1063    5.6833 H         1 <0>         0.0493
     53 H15         2.5612    3.7140    4.6186 H         1 <0>         0.0520
     54 H16         5.4011    5.4209   -3.8475 H         1 <0>         0.0915
     55 H17         6.5319    5.2374   -2.4876 H         1 <0>         0.0601
     56 H18         1.3705    8.9173   -2.8778 H         1 <0>         0.0688
     57 H19         1.1370    7.5576   -3.9559 H         1 <0>         0.0630
     58 H20         5.8802    7.3284   -1.5498 H         1 <0>         0.0807
     59 H21         5.7080    7.7145   -3.2631 H         1 <0>         0.0380
     60 H22         3.3395    7.2079   -4.2360 H         1 <0>         0.0484
     61 H23         3.5406    8.8134   -3.5374 H         1 <0>         0.0697
     62 H24         4.0335    4.0099   -2.5019 H         1 <0>         0.0843
     63 H25         4.9731    4.3173    5.0750 H         1 <0>         0.0831
     64 H26        -0.6181    6.0842   -1.1357 H         1 <0>         0.0704
     65 H27        -0.4536    6.0709   -2.8800 H         1 <0>         0.0718
     66 H28         7.6494    5.4516   -0.0948 H         1 <0>         0.0606
     67 H29         8.8216    4.2418    0.4157 H         1 <0>         0.0458
     68 H30         8.0356    6.7709    1.9287 H         1 <0>         0.0375
     69 H31         9.1825    5.5824    2.5383 H         1 <0>         0.0392
     70 H32         6.2171    4.9575    1.8728 H         1 <0>         0.0606
     71 H33         7.3929    3.7874    2.4660 H         1 <0>         0.0579
     72 H34         9.5108    7.2416   -0.0285 H         1 <0>         0.0571
     73 H35        10.6706    6.0303    0.5375 H         1 <0>         0.0503
     74 H36         7.0421    2.3587    0.4881 H         1 <0>         0.0993
     75 H37         2.1998    8.2929   -0.4996 H         1 <0>         0.3700
     76 H38         0.8492    7.4324    0.1998 H         1 <0>         0.3660
     77 H39        11.2163    8.3531    1.3147 H         1 <0>         0.3465
     78 H40        10.4498    7.6340    2.7108 H         1 <0>         0.3446
     79 H41         4.6275    4.7068    2.1898 H         1 <0>         0.3148
     80 H42         6.1527    3.1949   -1.3636 H         1 <0>         0.3220
@<TRIPOS>BOND
     1    1    2 ar
     2    1    3 ar
     3    2    4 ar
     4    3    5 ar
     5    4    6 ar
     6    5    6 ar
     7    6   23 1
     8    7   22 1
     9    7   29 am
    10    7   35 2
    11    8    9 1
    12    8   28 1
    13    8   36 2
    14    9   33 am
    15    9   37 2
    16   10   20 1
    17   10   34 am
    18   10   38 2
    19   11   12 1
    20   11   13 1
    21   12   14 1
    22   13   15 1
    23   14   21 1
    24   15   21 1
    25   16   18 1
    26   16   20 1
    27   17   19 1
    28   17   22 1
    29   18   30 1
    30   19   30 1
    31   20   29 1
    32   21   33 1
    33   22   23 1
    34   22   31 1
    35   24   25 1
    36   24   26 1
    37   25   27 1
    38   26   28 1
    39   27   32 1
    40   28   34 1
    41   29   30 1
    42    1   39 1
    43    2   40 1
    44    3   41 1
    45    4   42 1
    46    5   43 1
    47   11   44 1
    48   11   45 1
    49   12   46 1
    50   12   47 1
    51   13   48 1
    52   13   49 1
    53   14   50 1
    54   14   51 1
    55   15   52 1
    56   15   53 1
    57   16   54 1
    58   16   55 1
    59   17   56 1
    60   17   57 1
    61   18   58 1
    62   18   59 1
    63   19   60 1
    64   19   61 1
    65   20   62 1
    66   21   63 1
    67   23   64 1
    68   23   65 1
    69   24   66 1
    70   24   67 1
    71   25   68 1
    72   25   69 1
    73   26   70 1
    74   26   71 1
    75   27   72 1
    76   27   73 1
    77   28   74 1
    78   31   75 1
    79   31   76 1
    80   32   77 1
    81   32   78 1
    82   33   79 1
    83   34   80 1
@<TRIPOS>MOLECULE
1a46_ligand_383
   80    83     0     0     0
SMALL
USER_CHARGES

mmff94s_NoEstat = 93.81
@<TRIPOS>ATOM
      1 C1         -7.1732    5.1663  -14.6915 C.ar      1 <0>        -0.1300
      2 C2         -5.9354    5.8086  -14.7170 C.ar      1 <0>        -0.1323
      3 C3         -7.6444    4.6069  -13.5037 C.ar      1 <0>        -0.1309
      4 C4         -5.1685    5.8915  -13.5548 C.ar      1 <0>        -0.1275
      5 C5         -6.8775    4.6898  -12.3415 C.ar      1 <0>        -0.1272
      6 C6         -5.6446    5.3316  -12.3746 C.ar      1 <0>        -0.0843
      7 C7         -3.0329    4.3040   -9.7137 C.2       1 <0>         0.6709
      8 C8          2.7796    3.2097   -6.1637 C.2       1 <0>         0.4867
      9 C9          2.0233    2.5606   -5.0416 C.2       1 <0>         0.5883
     10 C10        -0.2306    3.3845   -8.4382 C.2       1 <0>         0.6572
     11 C11        -0.7587   -1.8963   -3.7722 C.3       1 <0>        -0.0802
     12 C12         0.4343   -1.3249   -3.0112 C.3       1 <0>        -0.0765
     13 C13        -1.5853   -0.7962   -4.4320 C.3       1 <0>        -0.0774
     14 C14         1.2970   -0.4339   -3.9033 C.3       1 <0>        -0.0953
     15 C15        -0.7252    0.0960   -5.3254 C.3       1 <0>        -0.0906
     16 C16        -1.6648    1.3674   -8.0386 C.3       1 <0>        -0.0871
     17 C17        -4.6909    2.9009  -11.0011 C.3       1 <0>        -0.0716
     18 C18        -1.8612    0.8785   -9.4723 C.3       1 <0>         0.1333
     19 C19        -3.9819    1.7050  -10.3424 C.3       1 <0>         0.1246
     20 C20        -1.6152    2.8736   -8.1831 C.3       1 <0>         0.0606
     21 C21         0.4653    0.6767   -4.5542 C.3       1 <0>         0.1012
     22 C22        -3.8794    4.2177  -10.9915 C.3       1 <0>         0.1554
     23 C23        -4.8198    5.4208  -11.1245 C.3       1 <0>        -0.0356
     24 C24         1.5857    6.0302   -6.5865 C.3       1 <0>        -0.0795
     25 C25         1.6811    7.5259   -6.9095 C.3       1 <0>        -0.1203
     26 C26         2.1570    5.1335   -7.6933 C.3       1 <0>        -0.0920
     27 C27         0.9506    7.9153   -8.1942 C.3       1 <0>         0.1502
     28 C28         2.0196    3.6328   -7.4097 C.3       1 <0>         0.0224
     29 N1         -2.3880    3.1216   -9.3852 N.am      1 <0>        -0.3553
     30 N2         -2.5540    1.9705  -10.1777 N.3       1 <0>        -0.4320
     31 N3         -2.9247    4.2482  -12.1092 N.3       1 <0>        -0.9031
     32 N4          1.1008    9.3448   -8.4455 N.3       1 <0>        -0.9068
     33 N5          1.3052    1.4630   -5.4557 N.am      1 <0>        -0.5526
     34 N6          0.6426    3.2153   -7.3763 N.am      1 <0>        -0.5576
     35 O1         -2.9337    5.3408   -9.0578 O.2       1 <0>        -0.6710
     36 O2          3.9949    3.2835   -6.0334 O.2       1 <0>        -0.4901
     37 O3          2.1023    3.0632   -3.9326 O.2       1 <0>        -0.5902
     38 O4          0.0350    3.8958   -9.5198 O.2       1 <0>        -0.5833
     39 H1         -7.7703    5.1016  -15.5965 H         1 <0>         0.1320
     40 H2         -5.5686    6.2441  -15.6419 H         1 <0>         0.1324
     41 H3         -8.6082    4.1066  -13.4840 H         1 <0>         0.1328
     42 H4         -4.2053    6.3939  -13.5842 H         1 <0>         0.1324
     43 H5         -7.2527    4.2510  -11.4207 H         1 <0>         0.1434
     44 H6         -0.4009   -2.5934   -4.5403 H         1 <0>         0.0405
     45 H7         -1.3913   -2.4724   -3.0874 H         1 <0>         0.0421
     46 H8          0.0754   -0.7432   -2.1532 H         1 <0>         0.0362
     47 H9          1.0423   -2.1437   -2.6106 H         1 <0>         0.0439
     48 H10        -2.3902   -1.2449   -5.0250 H         1 <0>         0.0350
     49 H11        -2.0624   -0.1837   -3.6569 H         1 <0>         0.0428
     50 H12         2.1091    0.0038   -3.3103 H         1 <0>         0.0663
     51 H13         1.7750   -1.0474   -4.6783 H         1 <0>         0.0466
     52 H14        -0.3671   -0.4856   -6.1849 H         1 <0>         0.0493
     53 H15        -1.3392    0.9078   -5.7339 H         1 <0>         0.0520
     54 H16        -2.5383    1.0847   -7.4380 H         1 <0>         0.0915
     55 H17        -0.7712    0.9407   -7.5731 H         1 <0>         0.0601
     56 H18        -4.9589    2.6417  -12.0345 H         1 <0>         0.0688
     57 H19        -5.6440    3.0543  -10.4769 H         1 <0>         0.0630
     58 H20        -0.8817    0.7357   -9.9443 H         1 <0>         0.0807
     59 H21        -2.3843   -0.0833   -9.5137 H         1 <0>         0.0380
     60 H22        -4.4563    1.4977   -9.3732 H         1 <0>         0.0484
     61 H23        -4.1342    0.8159  -10.9661 H         1 <0>         0.0697
     62 H24        -2.0334    3.4095   -7.3263 H         1 <0>         0.0843
     63 H25         0.1064    1.3705   -3.7853 H         1 <0>         0.0831
     64 H26        -4.2259    6.3366  -11.1252 H         1 <0>         0.0704
     65 H27        -5.4653    5.4651  -10.2453 H         1 <0>         0.0718
     66 H28         2.1358    5.8550   -5.6547 H         1 <0>         0.0606
     67 H29         0.5392    5.7688   -6.3906 H         1 <0>         0.0458
     68 H30         1.2509    8.0813   -6.0658 H         1 <0>         0.0375
     69 H31         2.7364    7.8199   -6.9737 H         1 <0>         0.0392
     70 H32         3.2164    5.3787   -7.8393 H         1 <0>         0.0606
     71 H33         1.6466    5.3535   -8.6384 H         1 <0>         0.0579
     72 H34        -0.1142    7.6709   -8.1144 H         1 <0>         0.0571
     73 H35         1.3573    7.3696   -9.0507 H         1 <0>         0.0503
     74 H36         2.4714    3.0747   -8.2388 H         1 <0>         0.0993
     75 H37        -2.4982    3.3913  -12.3759 H         1 <0>         0.3700
     76 H38        -2.5954    5.1358  -12.4112 H         1 <0>         0.3660
     77 H39         0.5734    9.7495   -9.1891 H         1 <0>         0.3465
     78 H40         1.8624    9.8209   -8.0113 H         1 <0>         0.3446
     79 H41         1.3611    1.1865   -6.4314 H         1 <0>         0.3148
     80 H42         0.2924    2.7728   -6.5286 H         1 <0>         0.3220
@<TRIPOS>BOND
     1    1    2 ar
     2    1    3 ar
     3    2    4 ar
     4    3    5 ar
     5    4    6 ar
     6    5    6 ar
     7    6   23 1
     8    7   22 1
     9    7   29 am
    10    7   35 2
    11    8    9 1
    12    8   28 1
    13    8   36 2
    14    9   33 am
    15    9   37 2
    16   10   20 1
    17   10   34 am
    18   10   38 2
    19   11   12 1
    20   11   13 1
    21   12   14 1
    22   13   15 1
    23   14   21 1
    24   15   21 1
    25   16   18 1
    26   16   20 1
    27   17   19 1
    28   17   22 1
    29   18   30 1
    30   19   30 1
    31   20   29 1
    32   21   33 1
    33   22   23 1
    34   22   31 1
    35   24   25 1
    36   24   26 1
    37   25   27 1
    38   26   28 1
    39   27   32 1
    40   28   34 1
    41   29   30 1
    42    1   39 1
    43    2   40 1
    44    3   41 1
    45    4   42 1
    46    5   43 1
    47   11   44 1
    48   11   45 1
    49   12   46 1
    50   12   47 1
    51   13   48 1
    52   13   49 1
    53   14   50 1
    54   14   51 1
    55   15   52 1
    56   15   53 1
    57   16   54 1
    58   16   55 1
    59   17   56 1
    60   17   57 1
    61   18   58 1
    62   18   59 1
    63   19   60 1
    64   19   61 1
    65   20   62 1
    66   21   63 1
    67   23   64 1
    68   23   65 1
    69   24   66 1
    70   24   67 1
    71   25   68 1
    72   25   69 1
    73   26   70 1
    74   26   71 1
    75   27   72 1
    76   27   73 1
    77   28   74 1
    78   31   75 1
    79   31   76 1
    80   32   77 1
    81   32   78 1
    82   33   79 1
    83   34   80 1
@<TRIPOS>MOLECULE
1a46_ligand_384
   80    83     0     0     0
SMALL
USER_CHARGES

mmff94s_NoEstat = 93.93
@<TRIPOS>ATOM
      1 C1         -6.3098    5.0766  -14.7059 C.ar      1 <0>        -0.1300
      2 C2         -4.9866    5.5178  -14.7011 C.ar      1 <0>        -0.1323
      3 C3         -6.8931    4.6085  -13.5284 C.ar      1 <0>        -0.1309
      4 C4         -4.2467    5.4909  -13.5190 C.ar      1 <0>        -0.1275
      5 C5         -6.1532    4.5816  -12.3463 C.ar      1 <0>        -0.1272
      6 C6         -4.8348    5.0229  -12.3493 C.ar      1 <0>        -0.0843
      7 C7         -2.4853    3.6254   -9.6135 C.2       1 <0>         0.6709
      8 C8          2.7796    3.2097   -6.1637 C.2       1 <0>         0.4867
      9 C9          2.2829    2.0299   -5.3801 C.2       1 <0>         0.5883
     10 C10         0.1051    2.2921   -8.2580 C.2       1 <0>         0.6572
     11 C11         3.1352   -0.7430   -0.8195 C.3       1 <0>        -0.0802
     12 C12         3.9901   -1.1863   -2.0034 C.3       1 <0>        -0.0765
     13 C13         1.8125   -0.1343   -1.2766 C.3       1 <0>        -0.0774
     14 C14         4.2106   -0.0471   -2.9972 C.3       1 <0>        -0.0953
     15 C15         2.0307    1.0065   -2.2690 C.3       1 <0>        -0.0906
     16 C16        -1.6364    0.5270   -7.8871 C.3       1 <0>        -0.0871
     17 C17        -4.3081    2.4860  -10.9382 C.3       1 <0>        -0.0716
     18 C18        -1.8694    0.0615   -9.3231 C.3       1 <0>         0.1333
     19 C19        -3.8118    1.2004  -10.2545 C.3       1 <0>         0.1246
     20 C20        -1.3485    2.0056   -8.0379 C.3       1 <0>         0.0606
     21 C21         2.8795    0.5537   -3.4621 C.3       1 <0>         0.1012
     22 C22        -3.3015    3.6603  -10.9133 C.3       1 <0>         0.1554
     23 C23        -4.0388    4.9940  -11.0778 C.3       1 <0>        -0.0356
     24 C24         3.6080    5.6033   -7.8654 C.3       1 <0>        -0.0795
     25 C25         3.7321    7.1143   -8.0937 C.3       1 <0>        -0.1203
     26 C26         2.1570    5.1335   -7.6933 C.3       1 <0>        -0.0920
     27 C27         5.1782    7.5875   -8.2387 C.3       1 <0>         0.1502
     28 C28         2.0196    3.6328   -7.4097 C.3       1 <0>         0.0224
     29 N1         -2.0417    2.3600   -9.2617 N.am      1 <0>        -0.3553
     30 N2         -2.3647    1.2416  -10.0526 N.3       1 <0>        -0.4320
     31 N3         -2.3251    3.5312  -12.0049 N.3       1 <0>        -0.9031
     32 N4          5.2178    9.0330   -8.4337 N.3       1 <0>        -0.9068
     33 N5          3.1295    1.6859   -4.3521 N.am      1 <0>        -0.5526
     34 N6          0.6426    3.2153   -7.3763 N.am      1 <0>        -0.5576
     35 O1         -2.2426    4.6401   -8.9604 O.2       1 <0>        -0.6710
     36 O2          3.8302    3.7133   -5.7870 O.2       1 <0>        -0.4901
     37 O3          1.2381    1.5078   -5.7331 O.2       1 <0>        -0.5902
     38 O4          0.7038    1.7190   -9.1607 O.2       1 <0>        -0.5833
     39 H1         -6.8859    5.0974  -15.6263 H         1 <0>         0.1320
     40 H2         -4.5325    5.8822  -15.6180 H         1 <0>         0.1324
     41 H3         -7.9234    4.2648  -13.5323 H         1 <0>         0.1328
     42 H4         -3.2164    5.8366  -13.5249 H         1 <0>         0.1324
     43 H5         -6.6159    4.2152  -11.4338 H         1 <0>         0.1434
     44 H6          2.9400   -1.5995   -0.1644 H         1 <0>         0.0405
     45 H7          3.6896   -0.0057   -0.2260 H         1 <0>         0.0421
     46 H8          4.9578   -1.5528   -1.6424 H         1 <0>         0.0362
     47 H9          3.5008   -2.0249   -2.5138 H         1 <0>         0.0439
     48 H10         1.1947   -0.9108   -1.7442 H         1 <0>         0.0350
     49 H11         1.2571    0.2351   -0.4071 H         1 <0>         0.0428
     50 H12         4.8299    0.7297   -2.5295 H         1 <0>         0.0663
     51 H13         4.7767   -0.4166   -3.8608 H         1 <0>         0.0466
     52 H14         1.0607    1.3794   -2.6197 H         1 <0>         0.0493
     53 H15         2.5198    1.8461   -1.7576 H         1 <0>         0.0520
     54 H16        -2.5585    0.3895   -7.3089 H         1 <0>         0.0915
     55 H17        -0.8326   -0.0295   -7.3954 H         1 <0>         0.0601
     56 H18        -4.5863    2.2623  -11.9771 H         1 <0>         0.0688
     57 H19        -5.2388    2.7911  -10.4408 H         1 <0>         0.0630
     58 H20        -0.9122   -0.2366   -9.7676 H         1 <0>         0.0807
     59 H21        -2.5349   -0.8073   -9.3737 H         1 <0>         0.0380
     60 H22        -4.3377    1.0786   -9.2974 H         1 <0>         0.0484
     61 H23        -4.0848    0.3402  -10.8776 H         1 <0>         0.0697
     62 H24        -1.7000    2.6081   -7.1954 H         1 <0>         0.0843
     63 H25         2.3252   -0.1849   -4.0527 H         1 <0>         0.0831
     64 H26        -3.3094    5.8060  -11.0670 H         1 <0>         0.0704
     65 H27        -4.6920    5.1466  -10.2166 H         1 <0>         0.0718
     66 H28         4.0550    5.0981   -8.7294 H         1 <0>         0.0606
     67 H29         4.2035    5.3200   -6.9896 H         1 <0>         0.0458
     68 H30         3.1762    7.3642   -9.0068 H         1 <0>         0.0375
     69 H31         3.2423    7.6502   -7.2709 H         1 <0>         0.0392
     70 H32         1.5916    5.3838   -8.5996 H         1 <0>         0.0606
     71 H33         1.6928    5.6841   -6.8667 H         1 <0>         0.0579
     72 H34         5.6557    7.0931   -9.0916 H         1 <0>         0.0571
     73 H35         5.7562    7.3441   -7.3424 H         1 <0>         0.0503
     74 H36         2.4714    3.0747   -8.2388 H         1 <0>         0.0993
     75 H37        -2.0308    2.6159  -12.2556 H         1 <0>         0.3700
     76 H38        -1.8535    4.3538  -12.3024 H         1 <0>         0.3660
     77 H39         6.0938    9.4532   -8.6597 H         1 <0>         0.3465
     78 H40         4.4297    9.5689   -8.1390 H         1 <0>         0.3446
     79 H41         3.9656    2.2434   -4.2049 H         1 <0>         0.3148
     80 H42         0.0323    3.6193   -6.6682 H         1 <0>         0.3220
@<TRIPOS>BOND
     1    1    2 ar
     2    1    3 ar
     3    2    4 ar
     4    3    5 ar
     5    4    6 ar
     6    5    6 ar
     7    6   23 1
     8    7   22 1
     9    7   29 am
    10    7   35 2
    11    8    9 1
    12    8   28 1
    13    8   36 2
    14    9   33 am
    15    9   37 2
    16   10   20 1
    17   10   34 am
    18   10   38 2
    19   11   12 1
    20   11   13 1
    21   12   14 1
    22   13   15 1
    23   14   21 1
    24   15   21 1
    25   16   18 1
    26   16   20 1
    27   17   19 1
    28   17   22 1
    29   18   30 1
    30   19   30 1
    31   20   29 1
    32   21   33 1
    33   22   23 1
    34   22   31 1
    35   24   25 1
    36   24   26 1
    37   25   27 1
    38   26   28 1
    39   27   32 1
    40   28   34 1
    41   29   30 1
    42    1   39 1
    43    2   40 1
    44    3   41 1
    45    4   42 1
    46    5   43 1
    47   11   44 1
    48   11   45 1
    49   12   46 1
    50   12   47 1
    51   13   48 1
    52   13   49 1
    53   14   50 1
    54   14   51 1
    55   15   52 1
    56   15   53 1
    57   16   54 1
    58   16   55 1
    59   17   56 1
    60   17   57 1
    61   18   58 1
    62   18   59 1
    63   19   60 1
    64   19   61 1
    65   20   62 1
    66   21   63 1
    67   23   64 1
    68   23   65 1
    69   24   66 1
    70   24   67 1
    71   25   68 1
    72   25   69 1
    73   26   70 1
    74   26   71 1
    75   27   72 1
    76   27   73 1
    77   28   74 1
    78   31   75 1
    79   31   76 1
    80   32   77 1
    81   32   78 1
    82   33   79 1
    83   34   80 1
@<TRIPOS>MOLECULE
1a46_ligand_385
   80    83     0     0     0
SMALL
USER_CHARGES

mmff94s_NoEstat = 93.95
@<TRIPOS>ATOM
      1 C1         -6.8775    5.0901  -14.7309 C.ar      1 <0>        -0.1300
      2 C2         -5.5917    5.6294  -14.7709 C.ar      1 <0>        -0.1323
      3 C3         -7.3842    4.5832  -13.5342 C.ar      1 <0>        -0.1309
      4 C4         -4.8126    5.6616  -13.6144 C.ar      1 <0>        -0.1275
      5 C5         -6.6051    4.6154  -12.3777 C.ar      1 <0>        -0.1272
      6 C6         -5.3244    5.1544  -12.4253 C.ar      1 <0>        -0.0843
      7 C7         -2.7863    3.9453   -9.7694 C.2       1 <0>         0.6709
      8 C8          2.7796    3.2097   -6.1637 C.2       1 <0>         0.4867
      9 C9          4.2189    2.8058   -6.2975 C.2       1 <0>         0.5883
     10 C10        -0.0591    2.8141   -8.5012 C.2       1 <0>         0.6572
     11 C11         8.2772    2.5486   -9.8582 C.3       1 <0>        -0.0802
     12 C12         7.3597    1.3292   -9.8495 C.3       1 <0>        -0.0765
     13 C13         8.3067    3.2411   -8.4986 C.3       1 <0>        -0.0774
     14 C14         5.9533    1.6857   -9.3709 C.3       1 <0>        -0.0953
     15 C15         6.9014    3.6002   -8.0189 C.3       1 <0>        -0.0906
     16 C16        -1.6498    0.9246   -8.0710 C.3       1 <0>        -0.0871
     17 C17        -4.5618    2.6685  -11.0314 C.3       1 <0>        -0.0716
     18 C18        -1.8952    0.4385   -9.4981 C.3       1 <0>         0.1333
     19 C19        -3.9477    1.4257  -10.3641 C.3       1 <0>         0.1246
     20 C20        -1.4789    2.4202   -8.2321 C.3       1 <0>         0.0606
     21 C21         5.9867    2.3706   -8.0002 C.3       1 <0>         0.1012
     22 C22        -3.6459    3.9150  -11.0410 C.3       1 <0>         0.1554
     23 C23        -4.4863    5.1891  -11.1812 C.3       1 <0>        -0.0356
     24 C24         1.4445    5.5921   -8.9731 C.3       1 <0>        -0.0795
     25 C25         1.6370    7.0835   -9.2718 C.3       1 <0>        -0.1203
     26 C26         2.1570    5.1335   -7.6933 C.3       1 <0>        -0.0920
     27 C27         0.9502    7.5360  -10.5601 C.3       1 <0>         0.1502
     28 C28         2.0196    3.6328   -7.4097 C.3       1 <0>         0.0224
     29 N1         -2.2374    2.7178   -9.4321 N.am      1 <0>        -0.3553
     30 N2         -2.5018    1.5760  -10.2111 N.3       1 <0>        -0.4320
     31 N3         -2.6997    3.8562  -12.1647 N.3       1 <0>        -0.9031
     32 N4          1.1922    8.9569  -10.7874 N.3       1 <0>        -0.9068
     33 N5          4.6345    2.7631   -7.6080 N.am      1 <0>        -0.5526
     34 N6          0.6426    3.2153   -7.3763 N.am      1 <0>        -0.5576
     35 O1         -2.5986    4.9773   -9.1254 O.2       1 <0>        -0.6710
     36 O2          2.3266    3.2509   -5.0269 O.2       1 <0>        -0.4901
     37 O3          4.8376    2.5476   -5.2781 O.2       1 <0>        -0.5902
     38 O4          0.3766    2.7593   -9.6452 O.2       1 <0>        -0.5833
     39 H1         -7.4841    5.0650  -15.6314 H         1 <0>         0.1320
     40 H2         -5.1973    6.0241  -15.7027 H         1 <0>         0.1324
     41 H3         -8.3853    4.1632  -13.5032 H         1 <0>         0.1328
     42 H4         -3.8120    6.0837  -13.6551 H         1 <0>         0.1324
     43 H5         -7.0082    4.2181  -11.4499 H         1 <0>         0.1434
     44 H6          9.2919    2.2447  -10.1392 H         1 <0>         0.0405
     45 H7          7.9328    3.2580  -10.6208 H         1 <0>         0.0421
     46 H8          7.3083    0.8994  -10.8562 H         1 <0>         0.0362
     47 H9          7.7827    0.5583   -9.1938 H         1 <0>         0.0439
     48 H10         8.7855    2.5829   -7.7631 H         1 <0>         0.0350
     49 H11         8.9178    4.1486   -8.5606 H         1 <0>         0.0428
     50 H12         5.4735    2.3436  -10.1075 H         1 <0>         0.0663
     51 H13         5.3404    0.7774   -9.3209 H         1 <0>         0.0466
     52 H14         6.9566    4.0411   -7.0161 H         1 <0>         0.0493
     53 H15         6.4785    4.3725   -8.6749 H         1 <0>         0.0520
     54 H16        -2.5391    0.7200   -7.4620 H         1 <0>         0.0915
     55 H17        -0.7905    0.4314   -7.6064 H         1 <0>         0.0601
     56 H18        -4.8571    2.4214  -12.0603 H         1 <0>         0.0688
     57 H19        -5.4956    2.9043  -10.5031 H         1 <0>         0.0630
     58 H20        -0.9338    0.2117   -9.9745 H         1 <0>         0.0807
     59 H21        -2.4949   -0.4779   -9.5259 H         1 <0>         0.0380
     60 H22        -4.4307    1.2677   -9.3899 H         1 <0>         0.0484
     61 H23        -4.1761    0.5456  -10.9773 H         1 <0>         0.0697
     62 H24        -1.8462    2.9971   -7.3786 H         1 <0>         0.0843
     63 H25         6.3338    1.6616   -7.2396 H         1 <0>         0.0831
     64 H26        -3.8200    6.0535  -11.1955 H         1 <0>         0.0704
     65 H27        -5.1199    5.2949  -10.2986 H         1 <0>         0.0718
     66 H28         0.3683    5.4079   -8.8774 H         1 <0>         0.0606
     67 H29         1.7918    5.0040   -9.8306 H         1 <0>         0.0458
     68 H30         1.2300    7.6523   -8.4256 H         1 <0>         0.0375
     69 H31         2.7093    7.3123   -9.3176 H         1 <0>         0.0392
     70 H32         1.7604    5.7005   -6.8419 H         1 <0>         0.0606
     71 H33         3.2243    5.3739   -7.7660 H         1 <0>         0.0579
     72 H34        -0.1287    7.3572  -10.4981 H         1 <0>         0.0571
     73 H35         1.3345    6.9786  -11.4193 H         1 <0>         0.0503
     74 H36         2.4714    3.0747   -8.2388 H         1 <0>         0.0993
     75 H37        -2.3461    2.9648  -12.4248 H         1 <0>         0.3700
     76 H38        -2.3015    4.7109  -12.4784 H         1 <0>         0.3660
     77 H39         0.7014    9.4044  -11.5317 H         1 <0>         0.3465
     78 H40         1.9755    9.3785  -10.3359 H         1 <0>         0.3446
     79 H41         3.9724    3.0156   -8.3355 H         1 <0>         0.3148
     80 H42         0.1596    3.2148   -6.4798 H         1 <0>         0.3220
@<TRIPOS>BOND
     1    1    2 ar
     2    1    3 ar
     3    2    4 ar
     4    3    5 ar
     5    4    6 ar
     6    5    6 ar
     7    6   23 1
     8    7   22 1
     9    7   29 am
    10    7   35 2
    11    8    9 1
    12    8   28 1
    13    8   36 2
    14    9   33 am
    15    9   37 2
    16   10   20 1
    17   10   34 am
    18   10   38 2
    19   11   12 1
    20   11   13 1
    21   12   14 1
    22   13   15 1
    23   14   21 1
    24   15   21 1
    25   16   18 1
    26   16   20 1
    27   17   19 1
    28   17   22 1
    29   18   30 1
    30   19   30 1
    31   20   29 1
    32   21   33 1
    33   22   23 1
    34   22   31 1
    35   24   25 1
    36   24   26 1
    37   25   27 1
    38   26   28 1
    39   27   32 1
    40   28   34 1
    41   29   30 1
    42    1   39 1
    43    2   40 1
    44    3   41 1
    45    4   42 1
    46    5   43 1
    47   11   44 1
    48   11   45 1
    49   12   46 1
    50   12   47 1
    51   13   48 1
    52   13   49 1
    53   14   50 1
    54   14   51 1
    55   15   52 1
    56   15   53 1
    57   16   54 1
    58   16   55 1
    59   17   56 1
    60   17   57 1
    61   18   58 1
    62   18   59 1
    63   19   60 1
    64   19   61 1
    65   20   62 1
    66   21   63 1
    67   23   64 1
    68   23   65 1
    69   24   66 1
    70   24   67 1
    71   25   68 1
    72   25   69 1
    73   26   70 1
    74   26   71 1
    75   27   72 1
    76   27   73 1
    77   28   74 1
    78   31   75 1
    79   31   76 1
    80   32   77 1
    81   32   78 1
    82   33   79 1
    83   34   80 1
@<TRIPOS>MOLECULE
1a46_ligand_386
   80    83     0     0     0
SMALL
USER_CHARGES

mmff94s_NoEstat = 94.00
@<TRIPOS>ATOM
      1 C1         -6.9230    5.5242    0.0960 C.ar      1 <0>        -0.1300
      2 C2         -5.5676    5.7959    0.2823 C.ar      1 <0>        -0.1323
      3 C3         -7.3195    4.5504   -0.8207 C.ar      1 <0>        -0.1309
      4 C4         -4.6088    5.0941   -0.4482 C.ar      1 <0>        -0.1275
      5 C5         -6.3607    3.8486   -1.5512 C.ar      1 <0>        -0.1272
      6 C6         -5.0116    4.1250   -1.3602 C.ar      1 <0>        -0.0843
      7 C7         -2.6002    3.3123   -4.2727 C.2       1 <0>         0.6709
      8 C8          2.7796    3.2097   -6.1637 C.2       1 <0>         0.4867
      9 C9          2.2829    2.0299   -5.3801 C.2       1 <0>         0.5883
     10 C10        -0.2772    3.6966   -6.4593 C.2       1 <0>         0.6572
     11 C11         3.1352   -0.7430   -0.8195 C.3       1 <0>        -0.0802
     12 C12         3.9901   -1.1863   -2.0034 C.3       1 <0>        -0.0765
     13 C13         1.8125   -0.1343   -1.2766 C.3       1 <0>        -0.0774
     14 C14         4.2106   -0.0471   -2.9972 C.3       1 <0>        -0.0953
     15 C15         2.0307    1.0065   -2.2690 C.3       1 <0>        -0.0906
     16 C16        -2.3224    3.5471   -7.9015 C.3       1 <0>        -0.0871
     17 C17        -4.9405    4.2595   -4.3066 C.3       1 <0>        -0.0716
     18 C18        -3.0196    4.8544   -7.5301 C.3       1 <0>         0.1333
     19 C19        -4.6999    4.4350   -5.8160 C.3       1 <0>         0.1246
     20 C20        -1.6533    3.1250   -6.6108 C.3       1 <0>         0.0606
     21 C21         2.8795    0.5537   -3.4621 C.3       1 <0>         0.1012
     22 C22        -3.6553    4.0808   -3.4645 C.3       1 <0>         0.1554
     23 C23        -3.9801    3.3700   -2.1460 C.3       1 <0>        -0.0356
     24 C24         3.6080    5.6033   -7.8654 C.3       1 <0>        -0.0795
     25 C25         3.7321    7.1143   -8.0937 C.3       1 <0>        -0.1203
     26 C26         2.1570    5.1335   -7.6933 C.3       1 <0>        -0.0920
     27 C27         5.1782    7.5875   -8.2387 C.3       1 <0>         0.1502
     28 C28         2.0196    3.6328   -7.4097 C.3       1 <0>         0.0224
     29 N1         -2.4817    3.7343   -5.5879 N.am      1 <0>        -0.3553
     30 N2         -3.3016    4.7634   -6.0871 N.3       1 <0>        -0.4320
     31 N3         -3.0521    5.3850   -3.1534 N.3       1 <0>        -0.9031
     32 N4          5.2178    9.0330   -8.4337 N.3       1 <0>        -0.9068
     33 N5          3.1295    1.6859   -4.3521 N.am      1 <0>        -0.5526
     34 N6          0.6426    3.2153   -7.3763 N.am      1 <0>        -0.5576
     35 O1         -1.9182    2.4140   -3.7798 O.2       1 <0>        -0.6710
     36 O2          3.8302    3.7133   -5.7870 O.2       1 <0>        -0.4901
     37 O3          1.2381    1.5078   -5.7331 O.2       1 <0>        -0.5902
     38 O4         -0.0579    4.5177   -5.5765 O.2       1 <0>        -0.5833
     39 H1         -7.6696    6.0707    0.6647 H         1 <0>         0.1320
     40 H2         -5.2590    6.5541    0.9960 H         1 <0>         0.1324
     41 H3         -8.3749    4.3390   -0.9657 H         1 <0>         0.1328
     42 H4         -3.5551    5.3126   -0.2965 H         1 <0>         0.1324
     43 H5         -6.6790    3.0917   -2.2632 H         1 <0>         0.1434
     44 H6          2.9400   -1.5995   -0.1644 H         1 <0>         0.0405
     45 H7          3.6896   -0.0057   -0.2260 H         1 <0>         0.0421
     46 H8          4.9578   -1.5528   -1.6424 H         1 <0>         0.0362
     47 H9          3.5008   -2.0249   -2.5138 H         1 <0>         0.0439
     48 H10         1.1947   -0.9108   -1.7442 H         1 <0>         0.0350
     49 H11         1.2571    0.2351   -0.4071 H         1 <0>         0.0428
     50 H12         4.8299    0.7297   -2.5295 H         1 <0>         0.0663
     51 H13         4.7767   -0.4166   -3.8608 H         1 <0>         0.0466
     52 H14         1.0607    1.3794   -2.6197 H         1 <0>         0.0493
     53 H15         2.5198    1.8461   -1.7576 H         1 <0>         0.0520
     54 H16        -3.0774    2.8030   -8.1842 H         1 <0>         0.0915
     55 H17        -1.6271    3.6703   -8.7375 H         1 <0>         0.0601
     56 H18        -5.5127    5.1168   -3.9266 H         1 <0>         0.0688
     57 H19        -5.5913    3.3849   -4.1715 H         1 <0>         0.0630
     58 H20        -2.3297    5.6917   -7.6901 H         1 <0>         0.0807
     59 H21        -3.9050    5.0413   -8.1478 H         1 <0>         0.0380
     60 H22        -4.9933    3.5117   -6.3344 H         1 <0>         0.0484
     61 H23        -5.3567    5.2300   -6.1889 H         1 <0>         0.0697
     62 H24        -1.5977    2.0405   -6.4809 H         1 <0>         0.0843
     63 H25         2.3252   -0.1849   -4.0527 H         1 <0>         0.0831
     64 H26        -3.0622    3.2636   -1.5651 H         1 <0>         0.0704
     65 H27        -4.3327    2.3604   -2.3649 H         1 <0>         0.0718
     66 H28         4.0550    5.0981   -8.7294 H         1 <0>         0.0606
     67 H29         4.2035    5.3200   -6.9896 H         1 <0>         0.0458
     68 H30         3.1762    7.3642   -9.0068 H         1 <0>         0.0375
     69 H31         3.2423    7.6502   -7.2709 H         1 <0>         0.0392
     70 H32         1.5916    5.3838   -8.5996 H         1 <0>         0.0606
     71 H33         1.6928    5.6841   -6.8667 H         1 <0>         0.0579
     72 H34         5.6557    7.0931   -9.0916 H         1 <0>         0.0571
     73 H35         5.7562    7.3441   -7.3424 H         1 <0>         0.0503
     74 H36         2.4714    3.0747   -8.2388 H         1 <0>         0.0993
     75 H37        -3.1119    6.0979   -3.8428 H         1 <0>         0.3700
     76 H38        -2.4431    5.4370   -2.3699 H         1 <0>         0.3660
     77 H39         6.0938    9.4532   -8.6597 H         1 <0>         0.3465
     78 H40         4.4297    9.5689   -8.1390 H         1 <0>         0.3446
     79 H41         3.9656    2.2434   -4.2049 H         1 <0>         0.3148
     80 H42         0.3285    2.5310   -8.0620 H         1 <0>         0.3220
@<TRIPOS>BOND
     1    1    2 ar
     2    1    3 ar
     3    2    4 ar
     4    3    5 ar
     5    4    6 ar
     6    5    6 ar
     7    6   23 1
     8    7   22 1
     9    7   29 am
    10    7   35 2
    11    8    9 1
    12    8   28 1
    13    8   36 2
    14    9   33 am
    15    9   37 2
    16   10   20 1
    17   10   34 am
    18   10   38 2
    19   11   12 1
    20   11   13 1
    21   12   14 1
    22   13   15 1
    23   14   21 1
    24   15   21 1
    25   16   18 1
    26   16   20 1
    27   17   19 1
    28   17   22 1
    29   18   30 1
    30   19   30 1
    31   20   29 1
    32   21   33 1
    33   22   23 1
    34   22   31 1
    35   24   25 1
    36   24   26 1
    37   25   27 1
    38   26   28 1
    39   27   32 1
    40   28   34 1
    41   29   30 1
    42    1   39 1
    43    2   40 1
    44    3   41 1
    45    4   42 1
    46    5   43 1
    47   11   44 1
    48   11   45 1
    49   12   46 1
    50   12   47 1
    51   13   48 1
    52   13   49 1
    53   14   50 1
    54   14   51 1
    55   15   52 1
    56   15   53 1
    57   16   54 1
    58   16   55 1
    59   17   56 1
    60   17   57 1
    61   18   58 1
    62   18   59 1
    63   19   60 1
    64   19   61 1
    65   20   62 1
    66   21   63 1
    67   23   64 1
    68   23   65 1
    69   24   66 1
    70   24   67 1
    71   25   68 1
    72   25   69 1
    73   26   70 1
    74   26   71 1
    75   27   72 1
    76   27   73 1
    77   28   74 1
    78   31   75 1
    79   31   76 1
    80   32   77 1
    81   32   78 1
    82   33   79 1
    83   34   80 1
@<TRIPOS>MOLECULE
1a46_ligand_387
   80    83     0     0     0
SMALL
USER_CHARGES

mmff94s_NoEstat = 94.00
@<TRIPOS>ATOM
      1 C1          9.3427    1.2226  -10.2936 C.ar      1 <0>        -0.1300
      2 C2          9.9666    0.8172   -9.1138 C.ar      1 <0>        -0.1323
      3 C3          8.4336    2.2805  -10.2739 C.ar      1 <0>        -0.1309
      4 C4          9.6814    1.4695   -7.9143 C.ar      1 <0>        -0.1275
      5 C5          8.1485    2.9328   -9.0744 C.ar      1 <0>        -0.1272
      6 C6          8.7742    2.5231   -7.9024 C.ar      1 <0>        -0.0843
      7 C7          6.9710    3.2795   -4.5657 C.2       1 <0>         0.6709
      8 C8          5.2358    2.3798    1.5634 C.2       1 <0>         0.4867
      9 C9          3.8230    2.3549    1.0577 C.2       1 <0>         0.5883
     10 C10         5.7098    2.8119   -1.6475 C.2       1 <0>         0.6572
     11 C11         0.9373   -1.3775    2.5204 C.3       1 <0>        -0.0802
     12 C12         1.7394   -1.1823    1.2365 C.3       1 <0>        -0.0765
     13 C13         1.1123   -0.2074    3.4848 C.3       1 <0>        -0.0774
     14 C14         1.4175    0.1558    0.5698 C.3       1 <0>        -0.0953
     15 C15         0.7915    1.1284    2.8128 C.3       1 <0>        -0.0906
     16 C16         3.6624    3.2324   -3.0320 C.3       1 <0>        -0.0871
     17 C17         6.0388    2.5547   -6.7975 C.3       1 <0>        -0.0716
     18 C18         3.6514    1.9752   -3.8994 C.3       1 <0>         0.1333
     19 C19         4.6996    2.4463   -6.0480 C.3       1 <0>         0.1246
     20 C20         5.1372    3.5153   -2.8394 C.3       1 <0>         0.0606
     21 C21         1.5860    1.3498    1.5188 C.3       1 <0>         0.1012
     22 C22         7.2891    2.5653   -5.8869 C.3       1 <0>         0.1554
     23 C23         8.4675    3.2247   -6.6121 C.3       1 <0>        -0.0356
     24 C24         7.6485    3.7409    2.8432 C.3       1 <0>        -0.0795
     25 C25         8.2774    4.8743    3.6620 C.3       1 <0>        -0.1203
     26 C26         6.9719    4.2276    1.5544 C.3       1 <0>        -0.0920
     27 C27         8.9284    4.3945    4.9589 C.3       1 <0>         0.1502
     28 C28         6.2906    3.1130    0.7514 C.3       1 <0>         0.0224
     29 N1          5.7488    2.9259   -4.0152 N.am      1 <0>        -0.3553
     30 N2          4.9069    2.0073   -4.6693 N.3       1 <0>        -0.4320
     31 N3          7.6768    1.1953   -5.5201 N.3       1 <0>        -0.9031
     32 N4          9.4866    5.5266    5.6910 N.3       1 <0>        -0.9068
     33 N5          3.0031    1.5591    1.8235 N.am      1 <0>        -0.5526
     34 N6          5.7762    3.5917   -0.5046 N.am      1 <0>        -0.5576
     35 O1          7.7474    4.0812   -4.0464 O.2       1 <0>        -0.6710
     36 O2          5.4669    1.7271    2.5732 O.2       1 <0>        -0.4901
     37 O3          3.5638    2.9965    0.0528 O.2       1 <0>        -0.5902
     38 O4          6.0670    1.6440   -1.7490 O.2       1 <0>        -0.5833
     39 H1          9.5646    0.7147  -11.2275 H         1 <0>         0.1320
     40 H2         10.6743   -0.0064   -9.1292 H         1 <0>         0.1324
     41 H3          7.9478    2.5960  -11.1926 H         1 <0>         0.1328
     42 H4         10.1723    1.1467   -7.0000 H         1 <0>         0.1324
     43 H5          7.4388    3.7559   -9.0687 H         1 <0>         0.1434
     44 H6         -0.1255   -1.4855    2.2708 H         1 <0>         0.0405
     45 H7          1.2453   -2.3083    3.0100 H         1 <0>         0.0421
     46 H8          2.8111   -1.2354    1.4633 H         1 <0>         0.0362
     47 H9          1.5224   -2.0004    0.5402 H         1 <0>         0.0439
     48 H10         0.4593   -0.3469    4.3538 H         1 <0>         0.0350
     49 H11         2.1423   -0.1951    3.8615 H         1 <0>         0.0428
     50 H12         2.0571    0.2818   -0.3122 H         1 <0>         0.0663
     51 H13         0.3811    0.1313    0.2097 H         1 <0>         0.0466
     52 H14        -0.2809    1.1599    2.5817 H         1 <0>         0.0493
     53 H15         0.9880    1.9434    3.5200 H         1 <0>         0.0520
     54 H16         3.1996    4.0578   -3.5869 H         1 <0>         0.0915
     55 H17         3.1150    3.0948   -2.0945 H         1 <0>         0.0601
     56 H18         6.1186    1.7328   -7.5220 H         1 <0>         0.0688
     57 H19         6.0134    3.4760   -7.3953 H         1 <0>         0.0630
     58 H20         3.6705    1.0888   -3.2538 H         1 <0>         0.0807
     59 H21         2.7495    1.9066   -4.5175 H         1 <0>         0.0380
     60 H22         4.1937    3.4213   -6.0771 H         1 <0>         0.0484
     61 H23         4.0529    1.7380   -6.5798 H         1 <0>         0.0697
     62 H24         5.3721    4.5807   -2.7630 H         1 <0>         0.0843
     63 H25         1.2460    2.2668    1.0263 H         1 <0>         0.0831
     64 H26         9.3395    3.2124   -5.9558 H         1 <0>         0.0704
     65 H27         8.2279    4.2735   -6.7972 H         1 <0>         0.0718
     66 H28         8.4445    3.0306    2.5915 H         1 <0>         0.0606
     67 H29         6.9275    3.2007    3.4679 H         1 <0>         0.0458
     68 H30         9.0354    5.3625    3.0356 H         1 <0>         0.0375
     69 H31         7.5157    5.6329    3.8824 H         1 <0>         0.0392
     70 H32         7.7210    4.7221    0.9235 H         1 <0>         0.0606
     71 H33         6.2174    4.9831    1.8035 H         1 <0>         0.0579
     72 H34         9.7251    3.6753    4.7403 H         1 <0>         0.0571
     73 H35         8.1937    3.8977    5.5994 H         1 <0>         0.0503
     74 H36         7.0421    2.3587    0.4881 H         1 <0>         0.0993
     75 H37         6.9507    0.5323   -5.3773 H         1 <0>         0.3700
     76 H38         8.6161    1.0420   -5.2343 H         1 <0>         0.3660
     77 H39        10.0430    5.3371    6.4969 H         1 <0>         0.3465
     78 H40         9.1331    6.4373    5.4892 H         1 <0>         0.3446
     79 H41         3.3981    1.0960    2.6365 H         1 <0>         0.3148
     80 H42         5.4441    4.5531   -0.5557 H         1 <0>         0.3220
@<TRIPOS>BOND
     1    1    2 ar
     2    1    3 ar
     3    2    4 ar
     4    3    5 ar
     5    4    6 ar
     6    5    6 ar
     7    6   23 1
     8    7   22 1
     9    7   29 am
    10    7   35 2
    11    8    9 1
    12    8   28 1
    13    8   36 2
    14    9   33 am
    15    9   37 2
    16   10   20 1
    17   10   34 am
    18   10   38 2
    19   11   12 1
    20   11   13 1
    21   12   14 1
    22   13   15 1
    23   14   21 1
    24   15   21 1
    25   16   18 1
    26   16   20 1
    27   17   19 1
    28   17   22 1
    29   18   30 1
    30   19   30 1
    31   20   29 1
    32   21   33 1
    33   22   23 1
    34   22   31 1
    35   24   25 1
    36   24   26 1
    37   25   27 1
    38   26   28 1
    39   27   32 1
    40   28   34 1
    41   29   30 1
    42    1   39 1
    43    2   40 1
    44    3   41 1
    45    4   42 1
    46    5   43 1
    47   11   44 1
    48   11   45 1
    49   12   46 1
    50   12   47 1
    51   13   48 1
    52   13   49 1
    53   14   50 1
    54   14   51 1
    55   15   52 1
    56   15   53 1
    57   16   54 1
    58   16   55 1
    59   17   56 1
    60   17   57 1
    61   18   58 1
    62   18   59 1
    63   19   60 1
    64   19   61 1
    65   20   62 1
    66   21   63 1
    67   23   64 1
    68   23   65 1
    69   24   66 1
    70   24   67 1
    71   25   68 1
    72   25   69 1
    73   26   70 1
    74   26   71 1
    75   27   72 1
    76   27   73 1
    77   28   74 1
    78   31   75 1
    79   31   76 1
    80   32   77 1
    81   32   78 1
    82   33   79 1
    83   34   80 1
@<TRIPOS>MOLECULE
1a46_ligand_388
   80    83     0     0     0
SMALL
USER_CHARGES

mmff94s_NoEstat = 94.03
@<TRIPOS>ATOM
      1 C1         -3.7305   -5.9204  -11.3537 C.ar      1 <0>        -0.1300
      2 C2         -2.4262   -5.5183  -11.6410 C.ar      1 <0>        -0.1323
      3 C3         -4.6750   -4.9808  -10.9404 C.ar      1 <0>        -0.1309
      4 C4         -2.0662   -4.1766  -11.5149 C.ar      1 <0>        -0.1275
      5 C5         -4.3150   -3.6391  -10.8142 C.ar      1 <0>        -0.1272
      6 C6         -3.0129   -3.2458  -11.1023 C.ar      1 <0>        -0.0843
      7 C7         -1.7147   -0.0189   -9.4111 C.2       1 <0>         0.6709
      8 C8          2.7796    3.2097   -6.1637 C.2       1 <0>         0.4867
      9 C9          4.2189    2.8058   -6.2975 C.2       1 <0>         0.5883
     10 C10         0.2181    1.9581   -7.7739 C.2       1 <0>         0.6572
     11 C11         7.7922   -0.8381   -4.5174 C.3       1 <0>        -0.0802
     12 C12         7.9054    0.6786   -4.3922 C.3       1 <0>        -0.0765
     13 C13         7.0460   -1.2444   -5.7851 C.3       1 <0>        -0.0774
     14 C14         6.5383    1.3550   -4.4797 C.3       1 <0>        -0.0953
     15 C15         5.6777   -0.5708   -5.8736 C.3       1 <0>        -0.0906
     16 C16        -1.7326    1.7367   -6.2145 C.3       1 <0>        -0.0871
     17 C17        -3.1871   -1.8587   -8.5042 C.3       1 <0>        -0.0716
     18 C18        -1.5889    0.2745   -5.7969 C.3       1 <0>         0.1333
     19 C19        -3.0480   -1.1203   -7.1617 C.3       1 <0>         0.1246
     20 C20        -1.2590    1.7411   -7.6524 C.3       1 <0>         0.0606
     21 C21         5.7973    0.9529   -5.7596 C.3       1 <0>         0.1012
     22 C22        -2.1125   -1.4947   -9.5555 C.3       1 <0>         0.1554
     23 C23        -2.6257   -1.8026  -10.9666 C.3       1 <0>        -0.0356
     24 C24         3.6080    5.6033   -7.8654 C.3       1 <0>        -0.0795
     25 C25         3.7321    7.1143   -8.0937 C.3       1 <0>        -0.1203
     26 C26         2.1570    5.1335   -7.6933 C.3       1 <0>        -0.0920
     27 C27         5.1782    7.5875   -8.2387 C.3       1 <0>         0.1502
     28 C28         2.0196    3.6328   -7.4097 C.3       1 <0>         0.0224
     29 N1         -1.5278    0.3875   -8.0990 N.am      1 <0>        -0.3553
     30 N2         -1.7250   -0.5121   -7.0349 N.3       1 <0>        -0.4320
     31 N3         -0.8818   -2.2667   -9.3297 N.3       1 <0>        -0.9031
     32 N4          5.2178    9.0330   -8.4337 N.3       1 <0>        -0.9068
     33 N5          4.4669    1.5582   -5.7743 N.am      1 <0>        -0.5526
     34 N6          0.6426    3.2153   -7.3763 N.am      1 <0>        -0.5576
     35 O1         -1.5651    0.7213  -10.3831 O.2       1 <0>        -0.6710
     36 O2          2.3266    3.2509   -5.0269 O.2       1 <0>        -0.4901
     37 O3          4.9897    3.5984   -6.8135 O.2       1 <0>        -0.5902
     38 O4          0.9290    1.0536   -8.1959 O.2       1 <0>        -0.5833
     39 H1         -4.0108   -6.9651  -11.4519 H         1 <0>         0.1320
     40 H2         -1.6909   -6.2500  -11.9629 H         1 <0>         0.1324
     41 H3         -5.6906   -5.2940  -10.7166 H         1 <0>         0.1328
     42 H4         -1.0476   -3.8726  -11.7408 H         1 <0>         0.1324
     43 H5         -5.0575   -2.9141  -10.4915 H         1 <0>         0.1434
     44 H6          8.7933   -1.2837   -4.5200 H         1 <0>         0.0405
     45 H7          7.2663   -1.2374   -3.6415 H         1 <0>         0.0421
     46 H8          8.3832    0.9352   -3.4400 H         1 <0>         0.0362
     47 H9          8.5535    1.0637   -5.1891 H         1 <0>         0.0439
     48 H10         7.6433   -0.9728   -6.6642 H         1 <0>         0.0350
     49 H11         6.9226   -2.3331   -5.8069 H         1 <0>         0.0428
     50 H12         5.9408    1.0840   -3.5992 H         1 <0>         0.0663
     51 H13         6.6638    2.4441   -4.4459 H         1 <0>         0.0466
     52 H14         5.1966   -0.8386   -6.8222 H         1 <0>         0.0493
     53 H15         5.0289   -0.9570   -5.0764 H         1 <0>         0.0520
     54 H16        -2.7915    2.0208   -6.1758 H         1 <0>         0.0915
     55 H17        -1.1685    2.4118   -5.5637 H         1 <0>         0.0601
     56 H18        -3.1756   -2.9428   -8.3269 H         1 <0>         0.0688
     57 H19        -4.1842   -1.6345   -8.9071 H         1 <0>         0.0630
     58 H20        -0.5812    0.1087   -5.3971 H         1 <0>         0.0807
     59 H21        -2.2993   -0.0031   -5.0104 H         1 <0>         0.0380
     60 H22        -3.8377   -0.3598   -7.0886 H         1 <0>         0.0484
     61 H23        -3.2188   -1.8335   -6.3463 H         1 <0>         0.0697
     62 H24        -1.7729    2.4744   -8.2803 H         1 <0>         0.0843
     63 H25         6.3253    1.3501   -6.6343 H         1 <0>         0.0831
     64 H26        -1.8489   -1.5475  -11.6898 H         1 <0>         0.0704
     65 H27        -3.4798   -1.1578  -11.1818 H         1 <0>         0.0718
     66 H28         4.0550    5.0981   -8.7294 H         1 <0>         0.0606
     67 H29         4.2035    5.3200   -6.9896 H         1 <0>         0.0458
     68 H30         3.1762    7.3642   -9.0068 H         1 <0>         0.0375
     69 H31         3.2423    7.6502   -7.2709 H         1 <0>         0.0392
     70 H32         1.5916    5.3838   -8.5996 H         1 <0>         0.0606
     71 H33         1.6928    5.6841   -6.8667 H         1 <0>         0.0579
     72 H34         5.6557    7.0931   -9.0916 H         1 <0>         0.0571
     73 H35         5.7562    7.3441   -7.3424 H         1 <0>         0.0503
     74 H36         2.4714    3.0747   -8.2388 H         1 <0>         0.0993
     75 H37        -0.6260   -2.4640   -8.3900 H         1 <0>         0.3700
     76 H38        -0.2603   -2.3800  -10.0968 H         1 <0>         0.3660
     77 H39         6.0938    9.4532   -8.6597 H         1 <0>         0.3465
     78 H40         4.4297    9.5689   -8.1390 H         1 <0>         0.3446
     79 H41         3.6911    1.0342   -5.3805 H         1 <0>         0.3148
     80 H42        -0.0552    3.8781   -7.0434 H         1 <0>         0.3220
@<TRIPOS>BOND
     1    1    2 ar
     2    1    3 ar
     3    2    4 ar
     4    3    5 ar
     5    4    6 ar
     6    5    6 ar
     7    6   23 1
     8    7   22 1
     9    7   29 am
    10    7   35 2
    11    8    9 1
    12    8   28 1
    13    8   36 2
    14    9   33 am
    15    9   37 2
    16   10   20 1
    17   10   34 am
    18   10   38 2
    19   11   12 1
    20   11   13 1
    21   12   14 1
    22   13   15 1
    23   14   21 1
    24   15   21 1
    25   16   18 1
    26   16   20 1
    27   17   19 1
    28   17   22 1
    29   18   30 1
    30   19   30 1
    31   20   29 1
    32   21   33 1
    33   22   23 1
    34   22   31 1
    35   24   25 1
    36   24   26 1
    37   25   27 1
    38   26   28 1
    39   27   32 1
    40   28   34 1
    41   29   30 1
    42    1   39 1
    43    2   40 1
    44    3   41 1
    45    4   42 1
    46    5   43 1
    47   11   44 1
    48   11   45 1
    49   12   46 1
    50   12   47 1
    51   13   48 1
    52   13   49 1
    53   14   50 1
    54   14   51 1
    55   15   52 1
    56   15   53 1
    57   16   54 1
    58   16   55 1
    59   17   56 1
    60   17   57 1
    61   18   58 1
    62   18   59 1
    63   19   60 1
    64   19   61 1
    65   20   62 1
    66   21   63 1
    67   23   64 1
    68   23   65 1
    69   24   66 1
    70   24   67 1
    71   25   68 1
    72   25   69 1
    73   26   70 1
    74   26   71 1
    75   27   72 1
    76   27   73 1
    77   28   74 1
    78   31   75 1
    79   31   76 1
    80   32   77 1
    81   32   78 1
    82   33   79 1
    83   34   80 1
@<TRIPOS>MOLECULE
1a46_ligand_389
   80    83     0     0     0
SMALL
USER_CHARGES

mmff94s_NoEstat = 94.04
@<TRIPOS>ATOM
      1 C1         11.2165    5.1344   -9.5699 C.ar      1 <0>        -0.1300
      2 C2         11.8039    4.7828   -8.3546 C.ar      1 <0>        -0.1323
      3 C3          9.9328    5.6797   -9.5922 C.ar      1 <0>        -0.1309
      4 C4         11.1077    4.9765   -7.1616 C.ar      1 <0>        -0.1275
      5 C5          9.2366    5.8734   -8.3991 C.ar      1 <0>        -0.1272
      6 C6          9.8285    5.5206   -7.1916 C.ar      1 <0>        -0.0843
      7 C7          7.4784    4.7027   -4.2310 C.2       1 <0>         0.6709
      8 C8          5.2358    2.3798    1.5634 C.2       1 <0>         0.4867
      9 C9          5.6522    1.1980    2.3894 C.2       1 <0>         0.5883
     10 C10         6.2126    3.1256   -1.7338 C.2       1 <0>         0.6572
     11 C11         2.4616   -2.5517    2.7858 C.3       1 <0>        -0.0802
     12 C12         2.7458   -1.3819    3.7243 C.3       1 <0>        -0.0765
     13 C13         3.3149   -2.4881    1.5218 C.3       1 <0>        -0.0774
     14 C14         4.2358   -1.2710    4.0502 C.3       1 <0>        -0.0953
     15 C15         4.8036   -2.3750    1.8530 C.3       1 <0>        -0.0906
     16 C16         4.3868    2.9365   -3.4414 C.3       1 <0>        -0.0871
     17 C17         7.2608    4.1580   -6.6868 C.3       1 <0>        -0.0716
     18 C18         5.0537    2.0131   -4.4592 C.3       1 <0>         0.1333
     19 C19         6.0339    3.3363   -6.2552 C.3       1 <0>         0.1246
     20 C20         5.5372    3.7637   -2.9085 C.3       1 <0>         0.0606
     21 C21         5.1166   -1.2051    2.7954 C.3       1 <0>         0.1012
     22 C22         8.2469    4.4948   -5.5436 C.3       1 <0>         0.1554
     23 C23         9.0796    5.7289   -5.9083 C.3       1 <0>        -0.0356
     24 C24         7.6485    3.7409    2.8432 C.3       1 <0>        -0.0795
     25 C25         8.2774    4.8743    3.6620 C.3       1 <0>        -0.1203
     26 C26         6.9719    4.2276    1.5544 C.3       1 <0>        -0.0920
     27 C27         8.9284    4.3945    4.9589 C.3       1 <0>         0.1502
     28 C28         6.2906    3.1130    0.7514 C.3       1 <0>         0.0224
     29 N1          6.4904    3.7576   -4.0019 N.am      1 <0>        -0.3553
     30 N2          6.2438    2.7368   -4.9387 N.3       1 <0>        -0.4320
     31 N3          9.1632    3.3713   -5.2994 N.3       1 <0>        -0.9031
     32 N4          9.4866    5.5266    5.6910 N.3       1 <0>        -0.9068
     33 N5          4.9185    0.0703    2.1034 N.am      1 <0>        -0.5526
     34 N6          5.7762    3.5917   -0.5046 N.am      1 <0>        -0.5576
     35 O1          7.7368    5.6223   -3.4546 O.2       1 <0>        -0.6710
     36 O2          4.0675    2.7325    1.6631 O.2       1 <0>        -0.4901
     37 O3          6.5432    1.3575    3.2076 O.2       1 <0>        -0.5902
     38 O4          7.0689    2.2691   -1.9210 O.2       1 <0>        -0.5833
     39 H1         11.7586    4.9835  -10.4989 H         1 <0>         0.1320
     40 H2         12.8034    4.3582   -8.3374 H         1 <0>         0.1324
     41 H3          9.4755    5.9533  -10.5385 H         1 <0>         0.1328
     42 H4         11.5733    4.6996   -6.2195 H         1 <0>         0.1324
     43 H5          8.2369    6.2989   -8.4262 H         1 <0>         0.1434
     44 H6          2.6613   -3.4941    3.3107 H         1 <0>         0.0405
     45 H7          1.3999   -2.5575    2.5144 H         1 <0>         0.0421
     46 H8          2.3966   -0.4501    3.2632 H         1 <0>         0.0362
     47 H9          2.1760   -1.5088    4.6520 H         1 <0>         0.0439
     48 H10         3.1411   -3.3847    0.9159 H         1 <0>         0.0350
     49 H11         3.0040   -1.6300    0.9138 H         1 <0>         0.0428
     50 H12         4.4027   -0.3853    4.6752 H         1 <0>         0.0663
     51 H13         4.5329   -2.1422    4.6479 H         1 <0>         0.0466
     52 H14         5.1334   -3.3097    2.3243 H         1 <0>         0.0493
     53 H15         5.3727   -2.2712    0.9212 H         1 <0>         0.0520
     54 H16         3.6738    3.5897   -3.9595 H         1 <0>         0.0915
     55 H17         3.8488    2.3812   -2.6670 H         1 <0>         0.0601
     56 H18         7.7933    3.6252   -7.4865 H         1 <0>         0.0688
     57 H19         6.8963    5.0889   -7.1420 H         1 <0>         0.0630
     58 H20         5.3910    1.1000   -3.9542 H         1 <0>         0.0807
     59 H21         4.3651    1.7081   -5.2548 H         1 <0>         0.0380
     60 H22         5.1498    3.9888   -6.2523 H         1 <0>         0.0484
     61 H23         5.8493    2.5563   -7.0035 H         1 <0>         0.0697
     62 H24         5.2534    4.7844   -2.6367 H         1 <0>         0.0843
     63 H25         6.1733   -1.2308    3.0814 H         1 <0>         0.0831
     64 H26         9.7736    5.9418   -5.0932 H         1 <0>         0.0704
     65 H27         8.4167    6.5923   -5.9906 H         1 <0>         0.0718
     66 H28         8.4445    3.0306    2.5915 H         1 <0>         0.0606
     67 H29         6.9275    3.2007    3.4679 H         1 <0>         0.0458
     68 H30         9.0354    5.3625    3.0356 H         1 <0>         0.0375
     69 H31         7.5157    5.6329    3.8824 H         1 <0>         0.0392
     70 H32         7.7210    4.7221    0.9235 H         1 <0>         0.0606
     71 H33         6.2174    4.9831    1.8035 H         1 <0>         0.0579
     72 H34         9.7251    3.6753    4.7403 H         1 <0>         0.0571
     73 H35         8.1937    3.8977    5.5994 H         1 <0>         0.0503
     74 H36         7.0421    2.3587    0.4881 H         1 <0>         0.0993
     75 H37         8.8040    2.4509   -5.4050 H         1 <0>         0.3700
     76 H38        10.0264    3.5689   -4.8487 H         1 <0>         0.3660
     77 H39        10.0430    5.3371    6.4969 H         1 <0>         0.3465
     78 H40         9.1331    6.4373    5.4892 H         1 <0>         0.3446
     79 H41         4.2076    0.1245    1.3800 H         1 <0>         0.3148
     80 H42         5.0545    4.3100   -0.4888 H         1 <0>         0.3220
@<TRIPOS>BOND
     1    1    2 ar
     2    1    3 ar
     3    2    4 ar
     4    3    5 ar
     5    4    6 ar
     6    5    6 ar
     7    6   23 1
     8    7   22 1
     9    7   29 am
    10    7   35 2
    11    8    9 1
    12    8   28 1
    13    8   36 2
    14    9   33 am
    15    9   37 2
    16   10   20 1
    17   10   34 am
    18   10   38 2
    19   11   12 1
    20   11   13 1
    21   12   14 1
    22   13   15 1
    23   14   21 1
    24   15   21 1
    25   16   18 1
    26   16   20 1
    27   17   19 1
    28   17   22 1
    29   18   30 1
    30   19   30 1
    31   20   29 1
    32   21   33 1
    33   22   23 1
    34   22   31 1
    35   24   25 1
    36   24   26 1
    37   25   27 1
    38   26   28 1
    39   27   32 1
    40   28   34 1
    41   29   30 1
    42    1   39 1
    43    2   40 1
    44    3   41 1
    45    4   42 1
    46    5   43 1
    47   11   44 1
    48   11   45 1
    49   12   46 1
    50   12   47 1
    51   13   48 1
    52   13   49 1
    53   14   50 1
    54   14   51 1
    55   15   52 1
    56   15   53 1
    57   16   54 1
    58   16   55 1
    59   17   56 1
    60   17   57 1
    61   18   58 1
    62   18   59 1
    63   19   60 1
    64   19   61 1
    65   20   62 1
    66   21   63 1
    67   23   64 1
    68   23   65 1
    69   24   66 1
    70   24   67 1
    71   25   68 1
    72   25   69 1
    73   26   70 1
    74   26   71 1
    75   27   72 1
    76   27   73 1
    77   28   74 1
    78   31   75 1
    79   31   76 1
    80   32   77 1
    81   32   78 1
    82   33   79 1
    83   34   80 1
@<TRIPOS>MOLECULE
1a46_ligand_390
   80    83     0     0     0
SMALL
USER_CHARGES

mmff94s_NoEstat = 94.12
@<TRIPOS>ATOM
      1 C1         11.2307    8.4980   -6.9074 C.ar      1 <0>        -0.1300
      2 C2         11.6037    8.0134   -5.6538 C.ar      1 <0>        -0.1323
      3 C3          9.8807    8.5885   -7.2468 C.ar      1 <0>        -0.1309
      4 C4         10.6268    7.6193   -4.7395 C.ar      1 <0>        -0.1275
      5 C5          8.9038    8.1943   -6.3325 C.ar      1 <0>        -0.1272
      6 C6          9.2832    7.7123   -5.0848 C.ar      1 <0>        -0.0843
      7 C7          6.8112    5.3648   -3.2584 C.2       1 <0>         0.6709
      8 C8          5.2358    2.3798    1.5634 C.2       1 <0>         0.4867
      9 C9          4.0737    1.7586    0.8450 C.2       1 <0>         0.5883
     10 C10         5.7098    2.8119   -1.6475 C.2       1 <0>         0.6572
     11 C11         4.8049   -2.8393   -1.0543 C.3       1 <0>        -0.0802
     12 C12         5.1334   -1.5466   -1.7966 C.3       1 <0>        -0.0765
     13 C13         4.2837   -2.5703    0.3549 C.3       1 <0>        -0.0774
     14 C14         3.9445   -0.5849   -1.8051 C.3       1 <0>        -0.0953
     15 C15         3.0965   -1.6064    0.3412 C.3       1 <0>        -0.0906
     16 C16         4.5614    2.5584   -3.8616 C.3       1 <0>        -0.0871
     17 C17         7.4096    5.5196   -5.7065 C.3       1 <0>        -0.0716
     18 C18         5.7552    2.2338   -4.7574 C.3       1 <0>         0.1333
     19 C19         6.5359    4.2626   -5.8584 C.3       1 <0>         0.1246
     20 C20         5.1372    3.5153   -2.8394 C.3       1 <0>         0.0606
     21 C21         3.4011   -0.2972   -0.3991 C.3       1 <0>         0.1012
     22 C22         7.8862    5.8039   -4.2626 C.3       1 <0>         0.1554
     23 C23         8.2324    7.2883   -4.1013 C.3       1 <0>        -0.0356
     24 C24         7.6485    3.7409    2.8432 C.3       1 <0>        -0.0795
     25 C25         8.2774    4.8743    3.6620 C.3       1 <0>        -0.1203
     26 C26         6.9719    4.2276    1.5544 C.3       1 <0>        -0.0920
     27 C27         8.9284    4.3945    4.9589 C.3       1 <0>         0.1502
     28 C28         6.2906    3.1130    0.7514 C.3       1 <0>         0.0224
     29 N1          6.2461    4.1312   -3.5428 N.am      1 <0>        -0.3553
     30 N2          6.6457    3.4048   -4.6800 N.3       1 <0>        -0.4320
     31 N3          9.0821    5.0103   -3.9441 N.3       1 <0>        -0.9031
     32 N4          9.4866    5.5266    5.6910 N.3       1 <0>        -0.9068
     33 N5          4.3625    0.5037    0.3619 N.am      1 <0>        -0.5526
     34 N6          5.7762    3.5917   -0.5046 N.am      1 <0>        -0.5576
     35 O1          6.4995    6.0504   -2.2848 O.2       1 <0>        -0.6710
     36 O2          5.3022    2.1819    2.7699 O.2       1 <0>        -0.4901
     37 O3          3.0463    2.4099    0.7491 O.2       1 <0>        -0.5902
     38 O4          6.0670    1.6440   -1.7490 O.2       1 <0>        -0.5833
     39 H1         11.9913    8.8048   -7.6194 H         1 <0>         0.1320
     40 H2         12.6548    7.9430   -5.3897 H         1 <0>         0.1324
     41 H3          9.5904    8.9656   -8.2230 H         1 <0>         0.1328
     42 H4         10.9268    7.2430   -3.7651 H         1 <0>         0.1324
     43 H5          7.8545    8.2683   -6.6056 H         1 <0>         0.1434
     44 H6          4.0495   -3.3996   -1.6192 H         1 <0>         0.0405
     45 H7          5.6979   -3.4724   -1.0028 H         1 <0>         0.0421
     46 H8          5.9978   -1.0638   -1.3249 H         1 <0>         0.0362
     47 H9          5.4242   -1.7791   -2.8274 H         1 <0>         0.0439
     48 H10         3.9836   -3.5152    0.8221 H         1 <0>         0.0350
     49 H11         5.0912   -2.1554    0.9702 H         1 <0>         0.0428
     50 H12         4.2419    0.3511   -2.2933 H         1 <0>         0.0663
     51 H13         3.1419   -1.0199   -2.4143 H         1 <0>         0.0466
     52 H14         2.2452   -2.1001   -0.1446 H         1 <0>         0.0493
     53 H15         2.7935   -1.3939    1.3737 H         1 <0>         0.0520
     54 H16         3.7944    3.0721   -4.4543 H         1 <0>         0.0915
     55 H17         4.1162    1.6608   -3.4217 H         1 <0>         0.0601
     56 H18         8.2801    5.4412   -6.3721 H         1 <0>         0.0688
     57 H19         6.8297    6.3763   -6.0759 H         1 <0>         0.0630
     58 H20         6.2922    1.3700   -4.3474 H         1 <0>         0.0807
     59 H21         5.4490    1.9715   -5.7762 H         1 <0>         0.0380
     60 H22         5.4939    4.5694   -6.0242 H         1 <0>         0.0484
     61 H23         6.8523    3.7181   -6.7562 H         1 <0>         0.0697
     62 H24         4.4225    4.2667   -2.4920 H         1 <0>         0.0843
     63 H25         2.4927    0.3103   -0.4689 H         1 <0>         0.0831
     64 H26         8.5747    7.4635   -3.0797 H         1 <0>         0.0704
     65 H27         7.3253    7.8806   -4.2350 H         1 <0>         0.0718
     66 H28         8.4445    3.0306    2.5915 H         1 <0>         0.0606
     67 H29         6.9275    3.2007    3.4679 H         1 <0>         0.0458
     68 H30         9.0354    5.3625    3.0356 H         1 <0>         0.0375
     69 H31         7.5157    5.6329    3.8824 H         1 <0>         0.0392
     70 H32         7.7210    4.7221    0.9235 H         1 <0>         0.0606
     71 H33         6.2174    4.9831    1.8035 H         1 <0>         0.0579
     72 H34         9.7251    3.6753    4.7403 H         1 <0>         0.0571
     73 H35         8.1937    3.8977    5.5994 H         1 <0>         0.0503
     74 H36         7.0421    2.3587    0.4881 H         1 <0>         0.0993
     75 H37         9.1461    4.0964   -4.3289 H         1 <0>         0.3700
     76 H38         9.6671    5.3316   -3.2079 H         1 <0>         0.3660
     77 H39        10.0430    5.3371    6.4969 H         1 <0>         0.3465
     78 H40         9.1331    6.4373    5.4892 H         1 <0>         0.3446
     79 H41         5.2837    0.1150    0.5408 H         1 <0>         0.3148
     80 H42         5.4441    4.5531   -0.5557 H         1 <0>         0.3220
@<TRIPOS>BOND
     1    1    2 ar
     2    1    3 ar
     3    2    4 ar
     4    3    5 ar
     5    4    6 ar
     6    5    6 ar
     7    6   23 1
     8    7   22 1
     9    7   29 am
    10    7   35 2
    11    8    9 1
    12    8   28 1
    13    8   36 2
    14    9   33 am
    15    9   37 2
    16   10   20 1
    17   10   34 am
    18   10   38 2
    19   11   12 1
    20   11   13 1
    21   12   14 1
    22   13   15 1
    23   14   21 1
    24   15   21 1
    25   16   18 1
    26   16   20 1
    27   17   19 1
    28   17   22 1
    29   18   30 1
    30   19   30 1
    31   20   29 1
    32   21   33 1
    33   22   23 1
    34   22   31 1
    35   24   25 1
    36   24   26 1
    37   25   27 1
    38   26   28 1
    39   27   32 1
    40   28   34 1
    41   29   30 1
    42    1   39 1
    43    2   40 1
    44    3   41 1
    45    4   42 1
    46    5   43 1
    47   11   44 1
    48   11   45 1
    49   12   46 1
    50   12   47 1
    51   13   48 1
    52   13   49 1
    53   14   50 1
    54   14   51 1
    55   15   52 1
    56   15   53 1
    57   16   54 1
    58   16   55 1
    59   17   56 1
    60   17   57 1
    61   18   58 1
    62   18   59 1
    63   19   60 1
    64   19   61 1
    65   20   62 1
    66   21   63 1
    67   23   64 1
    68   23   65 1
    69   24   66 1
    70   24   67 1
    71   25   68 1
    72   25   69 1
    73   26   70 1
    74   26   71 1
    75   27   72 1
    76   27   73 1
    77   28   74 1
    78   31   75 1
    79   31   76 1
    80   32   77 1
    81   32   78 1
    82   33   79 1
    83   34   80 1
@<TRIPOS>MOLECULE
1a46_ligand_391
   80    83     0     0     0
SMALL
USER_CHARGES

mmff94s_NoEstat = 94.15
@<TRIPOS>ATOM
      1 C1         -4.4072   -3.0319  -14.4211 C.ar      1 <0>        -0.1300
      2 C2         -3.1014   -2.5683  -14.5810 C.ar      1 <0>        -0.1323
      3 C3         -5.2666   -2.3997  -13.5224 C.ar      1 <0>        -0.1309
      4 C4         -2.6549   -1.4727  -13.8421 C.ar      1 <0>        -0.1275
      5 C5         -4.8200   -1.3041  -12.7835 C.ar      1 <0>        -0.1272
      6 C6         -3.5171   -0.8478  -12.9482 C.ar      1 <0>        -0.0843
      7 C7         -1.9267    1.0916  -10.0042 C.2       1 <0>         0.6709
      8 C8          2.7796    3.2097   -6.1637 C.2       1 <0>         0.4867
      9 C9          4.2189    2.8058   -6.2975 C.2       1 <0>         0.5883
     10 C10         0.2181    1.9581   -7.7739 C.2       1 <0>         0.6572
     11 C11         7.7922   -0.8381   -4.5174 C.3       1 <0>        -0.0802
     12 C12         7.9054    0.6786   -4.3922 C.3       1 <0>        -0.0765
     13 C13         7.0460   -1.2444   -5.7851 C.3       1 <0>        -0.0774
     14 C14         6.5383    1.3550   -4.4797 C.3       1 <0>        -0.0953
     15 C15         5.6777   -0.5708   -5.8736 C.3       1 <0>        -0.0906
     16 C16        -1.6423    1.0361   -6.3687 C.3       1 <0>        -0.0871
     17 C17        -3.4475   -0.9240   -9.9997 C.3       1 <0>        -0.0716
     18 C18        -1.5606   -0.4439   -6.7372 C.3       1 <0>         0.1333
     19 C19        -3.1819   -0.9495   -8.4846 C.3       1 <0>         0.1246
     20 C20        -1.2590    1.7411   -7.6524 C.3       1 <0>         0.0606
     21 C21         5.7973    0.9529   -5.7596 C.3       1 <0>         0.1012
     22 C22        -2.4199   -0.1108  -10.8216 C.3       1 <0>         0.1554
     23 C23        -3.0368    0.3307  -12.1535 C.3       1 <0>        -0.0356
     24 C24         3.6080    5.6033   -7.8654 C.3       1 <0>        -0.0795
     25 C25         3.7321    7.1143   -8.0937 C.3       1 <0>        -0.1203
     26 C26         2.1570    5.1335   -7.6933 C.3       1 <0>        -0.0920
     27 C27         5.1782    7.5875   -8.2387 C.3       1 <0>         0.1502
     28 C28         2.0196    3.6328   -7.4097 C.3       1 <0>         0.0224
     29 N1         -1.6352    0.7917   -8.6825 N.am      1 <0>        -0.3553
     30 N2         -1.8196   -0.5121   -8.1858 N.3       1 <0>        -0.4320
     31 N3         -1.2259   -0.9195  -11.1076 N.3       1 <0>        -0.9031
     32 N4          5.2178    9.0330   -8.4337 N.3       1 <0>        -0.9068
     33 N5          4.4669    1.5582   -5.7743 N.am      1 <0>        -0.5526
     34 N6          0.6426    3.2153   -7.3763 N.am      1 <0>        -0.5576
     35 O1         -1.7935    2.2123  -10.4955 O.2       1 <0>        -0.6710
     36 O2          2.3266    3.2509   -5.0269 O.2       1 <0>        -0.4901
     37 O3          4.9897    3.5984   -6.8135 O.2       1 <0>        -0.5902
     38 O4          0.9290    1.0536   -8.1959 O.2       1 <0>        -0.5833
     39 H1         -4.7549   -3.8850  -14.9963 H         1 <0>         0.1320
     40 H2         -2.4324   -3.0606  -15.2808 H         1 <0>         0.1324
     41 H3         -6.2832   -2.7609  -13.3979 H         1 <0>         0.1328
     42 H4         -1.6358   -1.1186  -13.9733 H         1 <0>         0.1324
     43 H5         -5.4966   -0.8180  -12.0857 H         1 <0>         0.1434
     44 H6          8.7933   -1.2837   -4.5200 H         1 <0>         0.0405
     45 H7          7.2663   -1.2374   -3.6415 H         1 <0>         0.0421
     46 H8          8.3832    0.9352   -3.4400 H         1 <0>         0.0362
     47 H9          8.5535    1.0637   -5.1891 H         1 <0>         0.0439
     48 H10         7.6433   -0.9728   -6.6642 H         1 <0>         0.0350
     49 H11         6.9226   -2.3331   -5.8069 H         1 <0>         0.0428
     50 H12         5.9408    1.0840   -3.5992 H         1 <0>         0.0663
     51 H13         6.6638    2.4441   -4.4459 H         1 <0>         0.0466
     52 H14         5.1966   -0.8386   -6.8222 H         1 <0>         0.0493
     53 H15         5.0289   -0.9570   -5.0764 H         1 <0>         0.0520
     54 H16        -2.6779    1.2865   -6.1074 H         1 <0>         0.0915
     55 H17        -0.9998    1.2887   -5.5196 H         1 <0>         0.0601
     56 H18        -3.4897   -1.9539  -10.3797 H         1 <0>         0.0688
     57 H19        -4.4523   -0.5086  -10.1558 H         1 <0>         0.0630
     58 H20        -0.5419   -0.8072   -6.5560 H         1 <0>         0.0807
     59 H21        -2.2364   -1.0589   -6.1327 H         1 <0>         0.0380
     60 H22        -3.9187   -0.3080   -7.9817 H         1 <0>         0.0484
     61 H23        -3.3442   -1.9688   -8.1140 H         1 <0>         0.0697
     62 H24        -1.7661    2.6997   -7.7936 H         1 <0>         0.0843
     63 H25         6.3253    1.3501   -6.6343 H         1 <0>         0.0831
     64 H26        -2.2923    0.8934  -12.7197 H         1 <0>         0.0704
     65 H27        -3.8625    1.0157  -11.9521 H         1 <0>         0.0718
     66 H28         4.0550    5.0981   -8.7294 H         1 <0>         0.0606
     67 H29         4.2035    5.3200   -6.9896 H         1 <0>         0.0458
     68 H30         3.1762    7.3642   -9.0068 H         1 <0>         0.0375
     69 H31         3.2423    7.6502   -7.2709 H         1 <0>         0.0392
     70 H32         1.5916    5.3838   -8.5996 H         1 <0>         0.0606
     71 H33         1.6928    5.6841   -6.8667 H         1 <0>         0.0579
     72 H34         5.6557    7.0931   -9.0916 H         1 <0>         0.0571
     73 H35         5.7562    7.3441   -7.3424 H         1 <0>         0.0503
     74 H36         2.4714    3.0747   -8.2388 H         1 <0>         0.0993
     75 H37        -0.9249   -1.5612  -10.4112 H         1 <0>         0.3700
     76 H38        -0.6609   -0.6518  -11.8799 H         1 <0>         0.3660
     77 H39         6.0938    9.4532   -8.6597 H         1 <0>         0.3465
     78 H40         4.4297    9.5689   -8.1390 H         1 <0>         0.3446
     79 H41         3.6911    1.0342   -5.3805 H         1 <0>         0.3148
     80 H42        -0.0552    3.8781   -7.0434 H         1 <0>         0.3220
@<TRIPOS>BOND
     1    1    2 ar
     2    1    3 ar
     3    2    4 ar
     4    3    5 ar
     5    4    6 ar
     6    5    6 ar
     7    6   23 1
     8    7   22 1
     9    7   29 am
    10    7   35 2
    11    8    9 1
    12    8   28 1
    13    8   36 2
    14    9   33 am
    15    9   37 2
    16   10   20 1
    17   10   34 am
    18   10   38 2
    19   11   12 1
    20   11   13 1
    21   12   14 1
    22   13   15 1
    23   14   21 1
    24   15   21 1
    25   16   18 1
    26   16   20 1
    27   17   19 1
    28   17   22 1
    29   18   30 1
    30   19   30 1
    31   20   29 1
    32   21   33 1
    33   22   23 1
    34   22   31 1
    35   24   25 1
    36   24   26 1
    37   25   27 1
    38   26   28 1
    39   27   32 1
    40   28   34 1
    41   29   30 1
    42    1   39 1
    43    2   40 1
    44    3   41 1
    45    4   42 1
    46    5   43 1
    47   11   44 1
    48   11   45 1
    49   12   46 1
    50   12   47 1
    51   13   48 1
    52   13   49 1
    53   14   50 1
    54   14   51 1
    55   15   52 1
    56   15   53 1
    57   16   54 1
    58   16   55 1
    59   17   56 1
    60   17   57 1
    61   18   58 1
    62   18   59 1
    63   19   60 1
    64   19   61 1
    65   20   62 1
    66   21   63 1
    67   23   64 1
    68   23   65 1
    69   24   66 1
    70   24   67 1
    71   25   68 1
    72   25   69 1
    73   26   70 1
    74   26   71 1
    75   27   72 1
    76   27   73 1
    77   28   74 1
    78   31   75 1
    79   31   76 1
    80   32   77 1
    81   32   78 1
    82   33   79 1
    83   34   80 1
@<TRIPOS>MOLECULE
1a46_ligand_392
   80    83     0     0     0
SMALL
USER_CHARGES

mmff94s_NoEstat = 94.17
@<TRIPOS>ATOM
      1 C1          5.9504   -1.3642  -10.1903 C.ar      1 <0>        -0.1300
      2 C2          6.6765   -1.8241   -9.0918 C.ar      1 <0>        -0.1323
      3 C3          5.5463   -0.0305  -10.2504 C.ar      1 <0>        -0.1309
      4 C4          6.9984   -0.9504   -8.0532 C.ar      1 <0>        -0.1275
      5 C5          5.8681    0.8432   -9.2119 C.ar      1 <0>        -0.1272
      6 C6          6.5921    0.3776   -8.1201 C.ar      1 <0>        -0.0843
      7 C7          6.1974    2.2868   -4.7798 C.2       1 <0>         0.6709
      8 C8          5.2358    2.3798    1.5634 C.2       1 <0>         0.4867
      9 C9          4.9672    2.8271    2.9706 C.2       1 <0>         0.5883
     10 C10         5.7098    2.8119   -1.6475 C.2       1 <0>         0.6572
     11 C11         2.4922    7.0459    3.6579 C.3       1 <0>        -0.0802
     12 C12         3.9725    7.1522    3.3012 C.3       1 <0>        -0.0765
     13 C13         2.0229    5.5946    3.7154 C.3       1 <0>        -0.0774
     14 C14         4.8393    6.3122    4.2403 C.3       1 <0>        -0.0953
     15 C15         2.8941    4.7584    4.6538 C.3       1 <0>        -0.0906
     16 C16         3.6723    3.8570   -2.6681 C.3       1 <0>        -0.0871
     17 C17         4.4858    1.7161   -6.5463 C.3       1 <0>        -0.0716
     18 C18         2.9535    2.6133   -3.1875 C.3       1 <0>         0.1333
     19 C19         3.4659    2.2898   -5.5476 C.3       1 <0>         0.1246
     20 C20         5.1372    3.5153   -2.8394 C.3       1 <0>         0.0606
     21 C21         4.3883    4.8474    4.3160 C.3       1 <0>         0.1012
     22 C22         5.8481    1.3265   -5.9256 C.3       1 <0>         0.1554
     23 C23         6.9383    1.3175   -7.0029 C.3       1 <0>        -0.0356
     24 C24         8.0800    4.9598    0.7851 C.3       1 <0>        -0.0795
     25 C25         8.7880    6.0338    1.6192 C.3       1 <0>        -0.1203
     26 C26         6.9719    4.2276    1.5544 C.3       1 <0>        -0.0920
     27 C27         9.9095    6.7454    0.8629 C.3       1 <0>         0.1502
     28 C28         6.2906    3.1130    0.7514 C.3       1 <0>         0.0224
     29 N1          5.1345    2.5635   -3.9339 N.am      1 <0>        -0.3553
     30 N2          3.8653    2.0037   -4.1710 N.3       1 <0>        -0.4320
     31 N3          5.7803   -0.0123   -5.3216 N.3       1 <0>        -0.9031
     32 N4         10.5470    7.7366    1.7233 N.3       1 <0>        -0.9068
     33 N5          4.6631    4.1662    3.0490 N.am      1 <0>        -0.5526
     34 N6          5.7762    3.5917   -0.5046 N.am      1 <0>        -0.5576
     35 O1          7.3278    2.7504   -4.6301 O.2       1 <0>        -0.6710
     36 O2          4.5176    1.4899    1.1258 O.2       1 <0>        -0.4901
     37 O3          5.0632    1.9994    3.8620 O.2       1 <0>        -0.5902
     38 O4          6.0670    1.6440   -1.7490 O.2       1 <0>        -0.5833
     39 H1          5.6997   -2.0446  -10.9989 H         1 <0>         0.1320
     40 H2          6.9911   -2.8626   -9.0451 H         1 <0>         0.1324
     41 H3          4.9808    0.3274  -11.1059 H         1 <0>         0.1328
     42 H4          7.5644   -1.3176   -7.2012 H         1 <0>         0.1324
     43 H5          5.5489    1.8806   -9.2673 H         1 <0>         0.1434
     44 H6          2.3189    7.5216    4.6312 H         1 <0>         0.0405
     45 H7          1.8951    7.5980    2.9232 H         1 <0>         0.0421
     46 H8          4.1234    6.8253    2.2653 H         1 <0>         0.0362
     47 H9          4.2878    8.2008    3.3513 H         1 <0>         0.0439
     48 H10         0.9809    5.5587    4.0532 H         1 <0>         0.0350
     49 H11         2.0439    5.1635    2.7072 H         1 <0>         0.0428
     50 H12         5.8844    6.3686    3.9125 H         1 <0>         0.0663
     51 H13         4.7977    6.7495    5.2460 H         1 <0>         0.0466
     52 H14         2.7407    5.1063    5.6833 H         1 <0>         0.0493
     53 H15         2.5612    3.7140    4.6186 H         1 <0>         0.0520
     54 H16         3.4181    4.7133   -3.3051 H         1 <0>         0.0915
     55 H17         3.3944    4.0971   -1.6373 H         1 <0>         0.0601
     56 H18         4.0497    0.8441   -7.0524 H         1 <0>         0.0688
     57 H19         4.6431    2.4675   -7.3320 H         1 <0>         0.0630
     58 H20         2.8170    1.9026   -2.3635 H         1 <0>         0.0807
     59 H21         1.9588    2.8453   -3.5837 H         1 <0>         0.0380
     60 H22         3.3744    3.3723   -5.7123 H         1 <0>         0.0484
     61 H23         2.4818    1.8533   -5.7569 H         1 <0>         0.0697
     62 H24         5.7646    4.3810   -3.0694 H         1 <0>         0.0843
     63 H25         4.9731    4.3173    5.0750 H         1 <0>         0.0831
     64 H26         7.8868    1.0311   -6.5450 H         1 <0>         0.0704
     65 H27         7.0672    2.3317   -7.3854 H         1 <0>         0.0718
     66 H28         7.6494    5.4516   -0.0948 H         1 <0>         0.0606
     67 H29         8.8216    4.2418    0.4157 H         1 <0>         0.0458
     68 H30         8.0356    6.7709    1.9287 H         1 <0>         0.0375
     69 H31         9.1825    5.5824    2.5383 H         1 <0>         0.0392
     70 H32         6.2171    4.9575    1.8728 H         1 <0>         0.0606
     71 H33         7.3929    3.7874    2.4660 H         1 <0>         0.0579
     72 H34         9.5108    7.2416   -0.0285 H         1 <0>         0.0571
     73 H35        10.6706    6.0303    0.5375 H         1 <0>         0.0503
     74 H36         7.0421    2.3587    0.4881 H         1 <0>         0.0993
     75 H37         4.9287   -0.2795   -4.8849 H         1 <0>         0.3700
     76 H38         6.6336   -0.5056   -5.1950 H         1 <0>         0.3660
     77 H39        11.2163    8.3531    1.3147 H         1 <0>         0.3465
     78 H40        10.4498    7.6340    2.7108 H         1 <0>         0.3446
     79 H41         4.6275    4.7068    2.1898 H         1 <0>         0.3148
     80 H42         5.4441    4.5531   -0.5557 H         1 <0>         0.3220
@<TRIPOS>BOND
     1    1    2 ar
     2    1    3 ar
     3    2    4 ar
     4    3    5 ar
     5    4    6 ar
     6    5    6 ar
     7    6   23 1
     8    7   22 1
     9    7   29 am
    10    7   35 2
    11    8    9 1
    12    8   28 1
    13    8   36 2
    14    9   33 am
    15    9   37 2
    16   10   20 1
    17   10   34 am
    18   10   38 2
    19   11   12 1
    20   11   13 1
    21   12   14 1
    22   13   15 1
    23   14   21 1
    24   15   21 1
    25   16   18 1
    26   16   20 1
    27   17   19 1
    28   17   22 1
    29   18   30 1
    30   19   30 1
    31   20   29 1
    32   21   33 1
    33   22   23 1
    34   22   31 1
    35   24   25 1
    36   24   26 1
    37   25   27 1
    38   26   28 1
    39   27   32 1
    40   28   34 1
    41   29   30 1
    42    1   39 1
    43    2   40 1
    44    3   41 1
    45    4   42 1
    46    5   43 1
    47   11   44 1
    48   11   45 1
    49   12   46 1
    50   12   47 1
    51   13   48 1
    52   13   49 1
    53   14   50 1
    54   14   51 1
    55   15   52 1
    56   15   53 1
    57   16   54 1
    58   16   55 1
    59   17   56 1
    60   17   57 1
    61   18   58 1
    62   18   59 1
    63   19   60 1
    64   19   61 1
    65   20   62 1
    66   21   63 1
    67   23   64 1
    68   23   65 1
    69   24   66 1
    70   24   67 1
    71   25   68 1
    72   25   69 1
    73   26   70 1
    74   26   71 1
    75   27   72 1
    76   27   73 1
    77   28   74 1
    78   31   75 1
    79   31   76 1
    80   32   77 1
    81   32   78 1
    82   33   79 1
    83   34   80 1
@<TRIPOS>MOLECULE
1a46_ligand_393
   80    83     0     0     0
SMALL
USER_CHARGES

mmff94s_NoEstat = 94.20
@<TRIPOS>ATOM
      1 C1         -4.4072   -3.0319  -14.4211 C.ar      1 <0>        -0.1300
      2 C2         -3.1014   -2.5683  -14.5810 C.ar      1 <0>        -0.1323
      3 C3         -5.2666   -2.3997  -13.5224 C.ar      1 <0>        -0.1309
      4 C4         -2.6549   -1.4727  -13.8421 C.ar      1 <0>        -0.1275
      5 C5         -4.8200   -1.3041  -12.7835 C.ar      1 <0>        -0.1272
      6 C6         -3.5171   -0.8478  -12.9482 C.ar      1 <0>        -0.0843
      7 C7         -1.9267    1.0916  -10.0042 C.2       1 <0>         0.6709
      8 C8          2.7796    3.2097   -6.1637 C.2       1 <0>         0.4867
      9 C9          4.2587    3.4565   -6.1009 C.2       1 <0>         0.5883
     10 C10         0.2181    1.9581   -7.7739 C.2       1 <0>         0.6572
     11 C11         8.8637    2.5610   -8.7855 C.3       1 <0>        -0.0802
     12 C12         8.4502    1.4381   -7.8384 C.3       1 <0>        -0.0765
     13 C13         8.3345    3.9144   -8.3194 C.3       1 <0>        -0.0774
     14 C14         6.9373    1.4067   -7.6280 C.3       1 <0>        -0.0953
     15 C15         6.8214    3.8859   -8.1103 C.3       1 <0>        -0.0906
     16 C16        -1.6423    1.0361   -6.3687 C.3       1 <0>        -0.0871
     17 C17        -3.4475   -0.9240   -9.9997 C.3       1 <0>        -0.0716
     18 C18        -1.5606   -0.4439   -6.7372 C.3       1 <0>         0.1333
     19 C19        -3.1819   -0.9495   -8.4846 C.3       1 <0>         0.1246
     20 C20        -1.2590    1.7411   -7.6524 C.3       1 <0>         0.0606
     21 C21         6.4119    2.7646   -7.1492 C.3       1 <0>         0.1012
     22 C22        -2.4199   -0.1108  -10.8216 C.3       1 <0>         0.1554
     23 C23        -3.0368    0.3307  -12.1535 C.3       1 <0>        -0.0356
     24 C24         3.6080    5.6033   -7.8654 C.3       1 <0>        -0.0795
     25 C25         3.7321    7.1143   -8.0937 C.3       1 <0>        -0.1203
     26 C26         2.1570    5.1335   -7.6933 C.3       1 <0>        -0.0920
     27 C27         5.1782    7.5875   -8.2387 C.3       1 <0>         0.1502
     28 C28         2.0196    3.6328   -7.4097 C.3       1 <0>         0.0224
     29 N1         -1.6352    0.7917   -8.6825 N.am      1 <0>        -0.3553
     30 N2         -1.8196   -0.5121   -8.1858 N.3       1 <0>        -0.4320
     31 N3         -1.2259   -0.9195  -11.1076 N.3       1 <0>        -0.9031
     32 N4          5.2178    9.0330   -8.4337 N.3       1 <0>        -0.9068
     33 N5          4.9558    2.7197   -7.0299 N.am      1 <0>        -0.5526
     34 N6          0.6426    3.2153   -7.3763 N.am      1 <0>        -0.5576
     35 O1         -1.7935    2.2123  -10.4955 O.2       1 <0>        -0.6710
     36 O2          2.2586    2.7495   -5.1557 O.2       1 <0>        -0.4901
     37 O3          4.6736    4.2333   -5.2564 O.2       1 <0>        -0.5902
     38 O4          0.9290    1.0536   -8.1959 O.2       1 <0>        -0.5833
     39 H1         -4.7549   -3.8850  -14.9963 H         1 <0>         0.1320
     40 H2         -2.4324   -3.0606  -15.2808 H         1 <0>         0.1324
     41 H3         -6.2832   -2.7609  -13.3979 H         1 <0>         0.1328
     42 H4         -1.6358   -1.1186  -13.9733 H         1 <0>         0.1324
     43 H5         -5.4966   -0.8180  -12.0857 H         1 <0>         0.1434
     44 H6          9.9564    2.5978   -8.8590 H         1 <0>         0.0405
     45 H7          8.4821    2.3476   -9.7916 H         1 <0>         0.0421
     46 H8          8.7864    0.4752   -8.2393 H         1 <0>         0.0362
     47 H9          8.9493    1.5736   -6.8710 H         1 <0>         0.0439
     48 H10         8.8268    4.1960   -7.3805 H         1 <0>         0.0350
     49 H11         8.5899    4.6836   -9.0571 H         1 <0>         0.0428
     50 H12         6.4445    1.1238   -8.5676 H         1 <0>         0.0663
     51 H13         6.6833    0.6284   -6.8982 H         1 <0>         0.0466
     52 H14         6.4858    4.8545   -7.7204 H         1 <0>         0.0493
     53 H15         6.3220    3.7511   -9.0789 H         1 <0>         0.0520
     54 H16        -2.6779    1.2865   -6.1074 H         1 <0>         0.0915
     55 H17        -0.9998    1.2887   -5.5196 H         1 <0>         0.0601
     56 H18        -3.4897   -1.9539  -10.3797 H         1 <0>         0.0688
     57 H19        -4.4523   -0.5086  -10.1558 H         1 <0>         0.0630
     58 H20        -0.5419   -0.8072   -6.5560 H         1 <0>         0.0807
     59 H21        -2.2364   -1.0589   -6.1327 H         1 <0>         0.0380
     60 H22        -3.9187   -0.3080   -7.9817 H         1 <0>         0.0484
     61 H23        -3.3442   -1.9688   -8.1140 H         1 <0>         0.0697
     62 H24        -1.7661    2.6997   -7.7936 H         1 <0>         0.0843
     63 H25         6.7961    2.9779   -6.1450 H         1 <0>         0.0831
     64 H26        -2.2923    0.8934  -12.7197 H         1 <0>         0.0704
     65 H27        -3.8625    1.0157  -11.9521 H         1 <0>         0.0718
     66 H28         4.0550    5.0981   -8.7294 H         1 <0>         0.0606
     67 H29         4.2035    5.3200   -6.9896 H         1 <0>         0.0458
     68 H30         3.1762    7.3642   -9.0068 H         1 <0>         0.0375
     69 H31         3.2423    7.6502   -7.2709 H         1 <0>         0.0392
     70 H32         1.5916    5.3838   -8.5996 H         1 <0>         0.0606
     71 H33         1.6928    5.6841   -6.8667 H         1 <0>         0.0579
     72 H34         5.6557    7.0931   -9.0916 H         1 <0>         0.0571
     73 H35         5.7562    7.3441   -7.3424 H         1 <0>         0.0503
     74 H36         2.4714    3.0747   -8.2388 H         1 <0>         0.0993
     75 H37        -0.9249   -1.5612  -10.4112 H         1 <0>         0.3700
     76 H38        -0.6609   -0.6518  -11.8799 H         1 <0>         0.3660
     77 H39         6.0938    9.4532   -8.6597 H         1 <0>         0.3465
     78 H40         4.4297    9.5689   -8.1390 H         1 <0>         0.3446
     79 H41         4.4356    2.1176   -7.6610 H         1 <0>         0.3148
     80 H42        -0.0552    3.8781   -7.0434 H         1 <0>         0.3220
@<TRIPOS>BOND
     1    1    2 ar
     2    1    3 ar
     3    2    4 ar
     4    3    5 ar
     5    4    6 ar
     6    5    6 ar
     7    6   23 1
     8    7   22 1
     9    7   29 am
    10    7   35 2
    11    8    9 1
    12    8   28 1
    13    8   36 2
    14    9   33 am
    15    9   37 2
    16   10   20 1
    17   10   34 am
    18   10   38 2
    19   11   12 1
    20   11   13 1
    21   12   14 1
    22   13   15 1
    23   14   21 1
    24   15   21 1
    25   16   18 1
    26   16   20 1
    27   17   19 1
    28   17   22 1
    29   18   30 1
    30   19   30 1
    31   20   29 1
    32   21   33 1
    33   22   23 1
    34   22   31 1
    35   24   25 1
    36   24   26 1
    37   25   27 1
    38   26   28 1
    39   27   32 1
    40   28   34 1
    41   29   30 1
    42    1   39 1
    43    2   40 1
    44    3   41 1
    45    4   42 1
    46    5   43 1
    47   11   44 1
    48   11   45 1
    49   12   46 1
    50   12   47 1
    51   13   48 1
    52   13   49 1
    53   14   50 1
    54   14   51 1
    55   15   52 1
    56   15   53 1
    57   16   54 1
    58   16   55 1
    59   17   56 1
    60   17   57 1
    61   18   58 1
    62   18   59 1
    63   19   60 1
    64   19   61 1
    65   20   62 1
    66   21   63 1
    67   23   64 1
    68   23   65 1
    69   24   66 1
    70   24   67 1
    71   25   68 1
    72   25   69 1
    73   26   70 1
    74   26   71 1
    75   27   72 1
    76   27   73 1
    77   28   74 1
    78   31   75 1
    79   31   76 1
    80   32   77 1
    81   32   78 1
    82   33   79 1
    83   34   80 1
@<TRIPOS>MOLECULE
1a46_ligand_394
   80    83     0     0     0
SMALL
USER_CHARGES

mmff94s_NoEstat = 94.26
@<TRIPOS>ATOM
      1 C1         -5.9518    1.0529  -15.7574 C.ar      1 <0>        -0.1300
      2 C2         -4.7078    1.6646  -15.9115 C.ar      1 <0>        -0.1323
      3 C3         -6.6077    1.1063  -14.5275 C.ar      1 <0>        -0.1309
      4 C4         -4.1196    2.3297  -14.8357 C.ar      1 <0>        -0.1275
      5 C5         -6.0195    1.7714  -13.4517 C.ar      1 <0>        -0.1272
      6 C6         -4.7793    2.3787  -13.6128 C.ar      1 <0>        -0.0843
      7 C7         -2.6173    2.8751  -10.4447 C.2       1 <0>         0.6709
      8 C8          2.7796    3.2097   -6.1637 C.2       1 <0>         0.4867
      9 C9          4.2189    2.8058   -6.2975 C.2       1 <0>         0.5883
     10 C10        -0.0591    2.8141   -8.5012 C.2       1 <0>         0.6572
     11 C11         7.8472    1.1582   -9.9494 C.3       1 <0>        -0.0802
     12 C12         7.4315    0.4126   -8.6844 C.3       1 <0>        -0.0765
     13 C13         7.7750    2.6709   -9.7609 C.3       1 <0>        -0.0774
     14 C14         6.0513    0.8522   -8.1989 C.3       1 <0>        -0.0953
     15 C15         6.3949    3.1130   -9.2773 C.3       1 <0>        -0.0906
     16 C16        -1.5879    1.1654   -7.3921 C.3       1 <0>        -0.0871
     17 C17        -4.1019    0.9486  -11.1228 C.3       1 <0>        -0.0716
     18 C18        -1.5823    0.0424   -8.4274 C.3       1 <0>         0.1333
     19 C19        -3.5290    0.2485   -9.8784 C.3       1 <0>         0.1246
     20 C20        -1.4789    2.4202   -8.2321 C.3       1 <0>         0.0606
     21 C21         5.9867    2.3706   -8.0002 C.3       1 <0>         0.1012
     22 C22        -3.2673    2.1480  -11.6303 C.3       1 <0>         0.1554
     23 C23        -4.1466    3.0941  -12.4556 C.3       1 <0>        -0.0356
     24 C24         1.4445    5.5921   -8.9731 C.3       1 <0>        -0.0795
     25 C25         1.6370    7.0835   -9.2718 C.3       1 <0>        -0.1203
     26 C26         2.1570    5.1335   -7.6933 C.3       1 <0>        -0.0920
     27 C27         0.9502    7.5360  -10.5601 C.3       1 <0>         0.1502
     28 C28         2.0196    3.6328   -7.4097 C.3       1 <0>         0.0224
     29 N1         -2.0587    2.0261   -9.5019 N.am      1 <0>        -0.3553
     30 N2         -2.1349    0.6298   -9.6602 N.3       1 <0>        -0.4320
     31 N3         -2.1572    1.6877  -12.4773 N.3       1 <0>        -0.9031
     32 N4          1.1922    8.9569  -10.7874 N.3       1 <0>        -0.9068
     33 N5          4.6345    2.7631   -7.6080 N.am      1 <0>        -0.5526
     34 N6          0.6426    3.2153   -7.3763 N.am      1 <0>        -0.5576
     35 O1         -2.5899    4.1027  -10.3594 O.2       1 <0>        -0.6710
     36 O2          2.3266    3.2509   -5.0269 O.2       1 <0>        -0.4901
     37 O3          4.8376    2.5476   -5.2781 O.2       1 <0>        -0.5902
     38 O4          0.3766    2.7593   -9.6452 O.2       1 <0>        -0.5833
     39 H1         -6.4098    0.5350  -16.5951 H         1 <0>         0.1320
     40 H2         -4.1972    1.6230  -16.8692 H         1 <0>         0.1324
     41 H3         -7.5763    0.6298  -14.4076 H         1 <0>         0.1328
     42 H4         -3.1501    2.8034  -14.9651 H         1 <0>         0.1324
     43 H5         -6.5379    1.8077  -12.4972 H         1 <0>         0.1434
     44 H6          8.8666    0.8698  -10.2293 H         1 <0>         0.0405
     45 H7          7.1919    0.8628  -10.7780 H         1 <0>         0.0421
     46 H8          7.4280   -0.6662   -8.8768 H         1 <0>         0.0362
     47 H9          8.1701    0.5940   -7.8939 H         1 <0>         0.0439
     48 H10         8.5338    2.9857   -9.0339 H         1 <0>         0.0350
     49 H11         8.0117    3.1716  -10.7066 H         1 <0>         0.0428
     50 H12         5.2916    0.5363   -8.9260 H         1 <0>         0.0663
     51 H13         5.8119    0.3409   -7.2586 H         1 <0>         0.0466
     52 H14         6.3976    4.1949   -9.0969 H         1 <0>         0.0493
     53 H15         5.6559    2.9320  -10.0691 H         1 <0>         0.0520
     54 H16        -2.5475    1.1615   -6.8606 H         1 <0>         0.0915
     55 H17        -0.7842    1.0569   -6.6575 H         1 <0>         0.0601
     56 H18        -4.2204    0.2148  -11.9317 H         1 <0>         0.0688
     57 H19        -5.1178    1.2870  -10.8778 H         1 <0>         0.0630
     58 H20        -0.5477   -0.2605   -8.6286 H         1 <0>         0.0807
     59 H21        -2.1179   -0.8467   -8.0766 H         1 <0>         0.0380
     60 H22        -4.1468    0.5063   -9.0071 H         1 <0>         0.0484
     61 H23        -3.6100   -0.8367  -10.0142 H         1 <0>         0.0697
     62 H24        -2.0054    3.2790   -7.8063 H         1 <0>         0.0843
     63 H25         6.6441    2.6649   -7.1738 H         1 <0>         0.0831
     64 H26        -3.5359    3.9262  -12.8108 H         1 <0>         0.0704
     65 H27        -4.9137    3.5213  -11.8072 H         1 <0>         0.0718
     66 H28         0.3683    5.4079   -8.8774 H         1 <0>         0.0606
     67 H29         1.7918    5.0040   -9.8306 H         1 <0>         0.0458
     68 H30         1.2300    7.6523   -8.4256 H         1 <0>         0.0375
     69 H31         2.7093    7.3123   -9.3176 H         1 <0>         0.0392
     70 H32         1.7604    5.7005   -6.8419 H         1 <0>         0.0606
     71 H33         3.2243    5.3739   -7.7660 H         1 <0>         0.0579
     72 H34        -0.1287    7.3572  -10.4981 H         1 <0>         0.0571
     73 H35         1.3345    6.9786  -11.4193 H         1 <0>         0.0503
     74 H36         2.4714    3.0747   -8.2388 H         1 <0>         0.0993
     75 H37        -1.7180    0.8294  -12.2371 H         1 <0>         0.3700
     76 H38        -1.7642    2.3382  -13.1175 H         1 <0>         0.3660
     77 H39         0.7014    9.4044  -11.5317 H         1 <0>         0.3465
     78 H40         1.9755    9.3785  -10.3359 H         1 <0>         0.3446
     79 H41         3.9724    3.0156   -8.3355 H         1 <0>         0.3148
     80 H42         0.1596    3.2148   -6.4798 H         1 <0>         0.3220
@<TRIPOS>BOND
     1    1    2 ar
     2    1    3 ar
     3    2    4 ar
     4    3    5 ar
     5    4    6 ar
     6    5    6 ar
     7    6   23 1
     8    7   22 1
     9    7   29 am
    10    7   35 2
    11    8    9 1
    12    8   28 1
    13    8   36 2
    14    9   33 am
    15    9   37 2
    16   10   20 1
    17   10   34 am
    18   10   38 2
    19   11   12 1
    20   11   13 1
    21   12   14 1
    22   13   15 1
    23   14   21 1
    24   15   21 1
    25   16   18 1
    26   16   20 1
    27   17   19 1
    28   17   22 1
    29   18   30 1
    30   19   30 1
    31   20   29 1
    32   21   33 1
    33   22   23 1
    34   22   31 1
    35   24   25 1
    36   24   26 1
    37   25   27 1
    38   26   28 1
    39   27   32 1
    40   28   34 1
    41   29   30 1
    42    1   39 1
    43    2   40 1
    44    3   41 1
    45    4   42 1
    46    5   43 1
    47   11   44 1
    48   11   45 1
    49   12   46 1
    50   12   47 1
    51   13   48 1
    52   13   49 1
    53   14   50 1
    54   14   51 1
    55   15   52 1
    56   15   53 1
    57   16   54 1
    58   16   55 1
    59   17   56 1
    60   17   57 1
    61   18   58 1
    62   18   59 1
    63   19   60 1
    64   19   61 1
    65   20   62 1
    66   21   63 1
    67   23   64 1
    68   23   65 1
    69   24   66 1
    70   24   67 1
    71   25   68 1
    72   25   69 1
    73   26   70 1
    74   26   71 1
    75   27   72 1
    76   27   73 1
    77   28   74 1
    78   31   75 1
    79   31   76 1
    80   32   77 1
    81   32   78 1
    82   33   79 1
    83   34   80 1
@<TRIPOS>MOLECULE
1a46_ligand_395
   80    83     0     0     0
SMALL
USER_CHARGES

mmff94s_NoEstat = 94.37
@<TRIPOS>ATOM
      1 C1          5.4266   13.4365   -3.4169 C.ar      1 <0>        -0.1300
      2 C2          5.8751   12.9626   -2.1841 C.ar      1 <0>        -0.1323
      3 C3          4.6702   12.6105   -4.2484 C.ar      1 <0>        -0.1309
      4 C4          5.5674   11.6626   -1.7828 C.ar      1 <0>        -0.1275
      5 C5          4.3625   11.3105   -3.8471 C.ar      1 <0>        -0.1272
      6 C6          4.8131   10.8451   -2.6169 C.ar      1 <0>        -0.0843
      7 C7          5.2227    7.0215   -2.2038 C.2       1 <0>         0.6709
      8 C8          5.2358    2.3798    1.5634 C.2       1 <0>         0.4867
      9 C9          4.0737    1.7586    0.8450 C.2       1 <0>         0.5883
     10 C10         6.5648    4.1956   -1.4701 C.2       1 <0>         0.6572
     11 C11         0.9025    4.9163   -1.4475 C.3       1 <0>        -0.0802
     12 C12         2.1335    4.3083   -2.1145 C.3       1 <0>        -0.0765
     13 C13         0.7823    4.4981    0.0156 C.3       1 <0>        -0.0774
     14 C14         2.1668    2.7877   -1.9544 C.3       1 <0>        -0.0953
     15 C15         0.8191    2.9772    0.1709 C.3       1 <0>        -0.0906
     16 C16         6.4370    4.0713   -3.9709 C.3       1 <0>        -0.0871
     17 C17         5.7185    8.5126   -4.1803 C.3       1 <0>        -0.0716
     18 C18         7.4589    5.1398   -4.3541 C.3       1 <0>         0.1333
     19 C19         6.3195    7.2447   -4.8112 C.3       1 <0>         0.1246
     20 C20         5.8189    4.6139   -2.6998 C.3       1 <0>         0.0606
     21 C21         2.0482    2.3405   -0.4913 C.3       1 <0>         0.1012
     22 C22         5.5566    8.4542   -2.6431 C.3       1 <0>         0.1554
     23 C23         4.4821    9.4467   -2.1852 C.3       1 <0>        -0.0356
     24 C24         7.6485    3.7409    2.8432 C.3       1 <0>        -0.0795
     25 C25         8.2774    4.8743    3.6620 C.3       1 <0>        -0.1203
     26 C26         6.9719    4.2276    1.5544 C.3       1 <0>        -0.0920
     27 C27         8.9284    4.3945    4.9589 C.3       1 <0>         0.1502
     28 C28         6.2906    3.1130    0.7514 C.3       1 <0>         0.0224
     29 N1          5.9858    6.0487   -2.8308 N.am      1 <0>        -0.3553
     30 N2          6.9481    6.4032   -3.7946 N.3       1 <0>        -0.4320
     31 N3          6.8203    8.7957   -1.9738 N.3       1 <0>        -0.9031
     32 N4         10.0019    3.4511    4.6645 N.3       1 <0>        -0.9068
     33 N5          3.2624    2.6947    0.2471 N.am      1 <0>        -0.5526
     34 N6          5.7762    3.5917   -0.5046 N.am      1 <0>        -0.5576
     35 O1          4.3619    6.7750   -1.3592 O.2       1 <0>        -0.6710
     36 O2          5.3022    2.1819    2.7699 O.2       1 <0>        -0.4901
     37 O3          3.9613    0.5442    0.8821 O.2       1 <0>        -0.5902
     38 O4          7.7705    4.4014   -1.3956 O.2       1 <0>        -0.5833
     39 H1          5.6663   14.4486   -3.7294 H         1 <0>         0.1320
     40 H2          6.4640   13.6058   -1.5368 H         1 <0>         0.1324
     41 H3          4.3212   12.9796   -5.2084 H         1 <0>         0.1328
     42 H4          5.9211   11.3020   -0.8206 H         1 <0>         0.1324
     43 H5          3.7727   10.6741   -4.5015 H         1 <0>         0.1434
     44 H6          0.9473    6.0092   -1.5165 H         1 <0>         0.0405
     45 H7          0.0030    4.5997   -1.9899 H         1 <0>         0.0421
     46 H8          2.1387    4.5652   -3.1800 H         1 <0>         0.0362
     47 H9          3.0392    4.7468   -1.6785 H         1 <0>         0.0439
     48 H10         1.5979    4.9499    0.5931 H         1 <0>         0.0350
     49 H11        -0.1539    4.8866    0.4326 H         1 <0>         0.0428
     50 H12         1.3377    2.3533   -2.5276 H         1 <0>         0.0663
     51 H13         3.0940    2.3998   -2.3932 H         1 <0>         0.0466
     52 H14         0.7914    2.7234    1.2376 H         1 <0>         0.0493
     53 H15        -0.0873    2.5537   -0.2802 H         1 <0>         0.0520
     54 H16         5.6709    4.0073   -4.7535 H         1 <0>         0.0915
     55 H17         6.8936    3.0840   -3.8511 H         1 <0>         0.0601
     56 H18         6.3330    9.3815   -4.4524 H         1 <0>         0.0688
     57 H19         4.7383    8.6848   -4.6454 H         1 <0>         0.0630
     58 H20         8.4170    4.9158   -3.8698 H         1 <0>         0.0807
     59 H21         7.6408    5.1703   -5.4340 H         1 <0>         0.0380
     60 H22         5.5257    6.6966   -5.3375 H         1 <0>         0.0484
     61 H23         7.0554    7.5409   -5.5683 H         1 <0>         0.0697
     62 H24         4.7652    4.3476   -2.5772 H         1 <0>         0.0843
     63 H25         1.9739    1.2492   -0.4411 H         1 <0>         0.0831
     64 H26         4.3919    9.3954   -1.0986 H         1 <0>         0.0704
     65 H27         3.5182    9.1401   -2.5956 H         1 <0>         0.0718
     66 H28         8.4445    3.0306    2.5915 H         1 <0>         0.0606
     67 H29         6.9275    3.2007    3.4679 H         1 <0>         0.0458
     68 H30         9.0354    5.3625    3.0356 H         1 <0>         0.0375
     69 H31         7.5157    5.6329    3.8824 H         1 <0>         0.0392
     70 H32         7.7210    4.7221    0.9235 H         1 <0>         0.0606
     71 H33         6.2174    4.9831    1.8035 H         1 <0>         0.0579
     72 H34         8.1846    3.9091    5.6001 H         1 <0>         0.0571
     73 H35         9.3517    5.2370    5.5137 H         1 <0>         0.0503
     74 H36         7.0421    2.3587    0.4881 H         1 <0>         0.0993
     75 H37         7.6658    8.5036   -2.4065 H         1 <0>         0.3700
     76 H38         6.7736    9.1160   -1.0343 H         1 <0>         0.3660
     77 H39        10.4299    2.9725    5.4279 H         1 <0>         0.3465
     78 H40        10.4049    3.4672    3.7521 H         1 <0>         0.3446
     79 H41         3.5167    3.6752    0.3209 H         1 <0>         0.3148
     80 H42         4.7816    3.4809   -0.6931 H         1 <0>         0.3220
@<TRIPOS>BOND
     1    1    2 ar
     2    1    3 ar
     3    2    4 ar
     4    3    5 ar
     5    4    6 ar
     6    5    6 ar
     7    6   23 1
     8    7   22 1
     9    7   29 am
    10    7   35 2
    11    8    9 1
    12    8   28 1
    13    8   36 2
    14    9   33 am
    15    9   37 2
    16   10   20 1
    17   10   34 am
    18   10   38 2
    19   11   12 1
    20   11   13 1
    21   12   14 1
    22   13   15 1
    23   14   21 1
    24   15   21 1
    25   16   18 1
    26   16   20 1
    27   17   19 1
    28   17   22 1
    29   18   30 1
    30   19   30 1
    31   20   29 1
    32   21   33 1
    33   22   23 1
    34   22   31 1
    35   24   25 1
    36   24   26 1
    37   25   27 1
    38   26   28 1
    39   27   32 1
    40   28   34 1
    41   29   30 1
    42    1   39 1
    43    2   40 1
    44    3   41 1
    45    4   42 1
    46    5   43 1
    47   11   44 1
    48   11   45 1
    49   12   46 1
    50   12   47 1
    51   13   48 1
    52   13   49 1
    53   14   50 1
    54   14   51 1
    55   15   52 1
    56   15   53 1
    57   16   54 1
    58   16   55 1
    59   17   56 1
    60   17   57 1
    61   18   58 1
    62   18   59 1
    63   19   60 1
    64   19   61 1
    65   20   62 1
    66   21   63 1
    67   23   64 1
    68   23   65 1
    69   24   66 1
    70   24   67 1
    71   25   68 1
    72   25   69 1
    73   26   70 1
    74   26   71 1
    75   27   72 1
    76   27   73 1
    77   28   74 1
    78   31   75 1
    79   31   76 1
    80   32   77 1
    81   32   78 1
    82   33   79 1
    83   34   80 1
@<TRIPOS>MOLECULE
1a46_ligand_396
   80    83     0     0     0
SMALL
USER_CHARGES

mmff94s_NoEstat = 94.51
@<TRIPOS>ATOM
      1 C1         11.1945    5.3647   -9.7731 C.ar      1 <0>        -0.1300
      2 C2         11.8337    5.1154   -8.5586 C.ar      1 <0>        -0.1323
      3 C3          9.8873    5.8513   -9.7863 C.ar      1 <0>        -0.1309
      4 C4         11.1656    5.3526   -7.3573 C.ar      1 <0>        -0.1275
      5 C5          9.2192    6.0884   -8.5850 C.ar      1 <0>        -0.1272
      6 C6          9.8628    5.8375   -7.3783 C.ar      1 <0>        -0.0843
      7 C7          7.6425    5.1042   -4.2977 C.2       1 <0>         0.6709
      8 C8          5.2358    2.3798    1.5634 C.2       1 <0>         0.4867
      9 C9          4.9672    2.8271    2.9706 C.2       1 <0>         0.5883
     10 C10         6.5256    3.6321   -1.6689 C.2       1 <0>         0.6572
     11 C11         7.8776    1.0312    6.5345 C.3       1 <0>        -0.0802
     12 C12         6.4939    0.5923    6.0625 C.3       1 <0>        -0.0765
     13 C13         8.4111    2.2066    5.7198 C.3       1 <0>        -0.0774
     14 C14         5.5091    1.7621    6.0419 C.3       1 <0>        -0.0953
     15 C15         7.4218    3.3727    5.7004 C.3       1 <0>        -0.0906
     16 C16         4.6595    3.2577   -3.3009 C.3       1 <0>        -0.0871
     17 C17         7.3760    4.3986   -6.7074 C.3       1 <0>        -0.0716
     18 C18         5.3367    2.3027   -4.2819 C.3       1 <0>         0.1333
     19 C19         6.2012    3.5529   -6.1864 C.3       1 <0>         0.1246
     20 C20         5.7868    4.1659   -2.8575 C.3       1 <0>         0.0606
     21 C21         6.0219    2.9580    5.2283 C.3       1 <0>         0.1012
     22 C22         8.3797    4.8486   -5.6198 C.3       1 <0>         0.1554
     23 C23         9.1441    6.0926   -6.0861 C.3       1 <0>        -0.0356
     24 C24         6.0158    5.3379    2.0114 C.3       1 <0>        -0.0795
     25 C25         6.7209    6.4716    2.7653 C.3       1 <0>        -0.1203
     26 C26         6.9719    4.2276    1.5544 C.3       1 <0>        -0.0920
     27 C27         5.7742    7.5909    3.1979 C.3       1 <0>         0.1502
     28 C28         6.2906    3.1130    0.7514 C.3       1 <0>         0.0224
     29 N1          6.7058    4.1331   -3.9791 N.am      1 <0>        -0.3553
     30 N2          6.4777    3.0462   -4.8435 N.3       1 <0>        -0.4320
     31 N3          9.3531    3.7833   -5.3380 N.3       1 <0>        -0.9031
     32 N4          6.5168    8.6391    3.8900 N.3       1 <0>        -0.9068
     33 N5          6.0450    2.6279    3.8016 N.am      1 <0>        -0.5526
     34 N6          5.7762    3.5917   -0.5046 N.am      1 <0>        -0.5576
     35 O1          7.8821    6.0807   -3.5877 O.2       1 <0>        -0.6710
     36 O2          4.5176    1.4899    1.1258 O.2       1 <0>        -0.4901
     37 O3          3.8636    3.2805    3.2258 O.2       1 <0>        -0.5902
     38 O4          7.6924    3.2783   -1.7917 O.2       1 <0>        -0.5833
     39 H1         11.7147    5.1800  -10.7084 H         1 <0>         0.1320
     40 H2         12.8515    4.7366   -8.5485 H         1 <0>         0.1324
     41 H3          9.3897    6.0452  -10.7320 H         1 <0>         0.1328
     42 H4         11.6716    5.1554   -6.4159 H         1 <0>         0.1324
     43 H5          8.2009    6.4675   -8.6050 H         1 <0>         0.1434
     44 H6          7.8257    1.3174    7.5923 H         1 <0>         0.0405
     45 H7          8.5750    0.1886    6.4668 H         1 <0>         0.0421
     46 H8          6.5714    0.1549    5.0598 H         1 <0>         0.0362
     47 H9          6.1136   -0.1954    6.7229 H         1 <0>         0.0439
     48 H10         9.3655    2.5423    6.1412 H         1 <0>         0.0350
     49 H11         8.6162    1.8771    4.6941 H         1 <0>         0.0428
     50 H12         4.5485    1.4170    5.6407 H         1 <0>         0.0663
     51 H13         5.3242    2.0871    7.0737 H         1 <0>         0.0466
     52 H14         7.3469    3.7903    6.7125 H         1 <0>         0.0493
     53 H15         7.8163    4.1685    5.0569 H         1 <0>         0.0520
     54 H16         3.9023    3.8458   -3.8340 H         1 <0>         0.0915
     55 H17         4.1709    2.7289   -2.4768 H         1 <0>         0.0601
     56 H18         7.9078    3.8408   -7.4902 H         1 <0>         0.0688
     57 H19         6.9559    5.2827   -7.2061 H         1 <0>         0.0630
     58 H20         5.7303    1.4383   -3.7336 H         1 <0>         0.0807
     59 H21         4.6390    1.9190   -5.0344 H         1 <0>         0.0380
     60 H22         5.2889    4.1652   -6.1941 H         1 <0>         0.0484
     61 H23         6.0298    2.7205   -6.8794 H         1 <0>         0.0697
     62 H24         5.4651    5.1881   -2.6391 H         1 <0>         0.0843
     63 H25         5.3304    3.8008    5.3305 H         1 <0>         0.0831
     64 H26         9.8520    6.3858   -5.3087 H         1 <0>         0.0704
     65 H27         8.4405    6.9195   -6.1990 H         1 <0>         0.0718
     66 H28         5.2579    4.9142    2.6804 H         1 <0>         0.0606
     67 H29         5.4809    5.7546    1.1500 H         1 <0>         0.0458
     68 H30         7.2000    6.0392    3.6534 H         1 <0>         0.0375
     69 H31         7.5258    6.8807    2.1417 H         1 <0>         0.0392
     70 H32         7.4599    3.7926    2.4354 H         1 <0>         0.0606
     71 H33         7.7645    4.6634    0.9347 H         1 <0>         0.0579
     72 H34         4.9986    7.1962    3.8630 H         1 <0>         0.0571
     73 H35         5.2784    8.0349    2.3297 H         1 <0>         0.0503
     74 H36         7.0421    2.3587    0.4881 H         1 <0>         0.0993
     75 H37         9.0331    2.8434   -5.3754 H         1 <0>         0.3700
     76 H38        10.2196    4.0460   -4.9287 H         1 <0>         0.3660
     77 H39         5.9996    9.3711    4.3277 H         1 <0>         0.3465
     78 H40         7.4997    8.7018    3.7315 H         1 <0>         0.3446
     79 H41         6.8947    2.2345    3.4084 H         1 <0>         0.3148
     80 H42         4.8120    3.9176   -0.5391 H         1 <0>         0.3220
@<TRIPOS>BOND
     1    1    2 ar
     2    1    3 ar
     3    2    4 ar
     4    3    5 ar
     5    4    6 ar
     6    5    6 ar
     7    6   23 1
     8    7   22 1
     9    7   29 am
    10    7   35 2
    11    8    9 1
    12    8   28 1
    13    8   36 2
    14    9   33 am
    15    9   37 2
    16   10   20 1
    17   10   34 am
    18   10   38 2
    19   11   12 1
    20   11   13 1
    21   12   14 1
    22   13   15 1
    23   14   21 1
    24   15   21 1
    25   16   18 1
    26   16   20 1
    27   17   19 1
    28   17   22 1
    29   18   30 1
    30   19   30 1
    31   20   29 1
    32   21   33 1
    33   22   23 1
    34   22   31 1
    35   24   25 1
    36   24   26 1
    37   25   27 1
    38   26   28 1
    39   27   32 1
    40   28   34 1
    41   29   30 1
    42    1   39 1
    43    2   40 1
    44    3   41 1
    45    4   42 1
    46    5   43 1
    47   11   44 1
    48   11   45 1
    49   12   46 1
    50   12   47 1
    51   13   48 1
    52   13   49 1
    53   14   50 1
    54   14   51 1
    55   15   52 1
    56   15   53 1
    57   16   54 1
    58   16   55 1
    59   17   56 1
    60   17   57 1
    61   18   58 1
    62   18   59 1
    63   19   60 1
    64   19   61 1
    65   20   62 1
    66   21   63 1
    67   23   64 1
    68   23   65 1
    69   24   66 1
    70   24   67 1
    71   25   68 1
    72   25   69 1
    73   26   70 1
    74   26   71 1
    75   27   72 1
    76   27   73 1
    77   28   74 1
    78   31   75 1
    79   31   76 1
    80   32   77 1
    81   32   78 1
    82   33   79 1
    83   34   80 1
@<TRIPOS>MOLECULE
1a46_ligand_397
   80    83     0     0     0
SMALL
USER_CHARGES

mmff94s_NoEstat = 94.58
@<TRIPOS>ATOM
      1 C1          5.9504   -1.3642  -10.1903 C.ar      1 <0>        -0.1300
      2 C2          6.6765   -1.8241   -9.0918 C.ar      1 <0>        -0.1323
      3 C3          5.5463   -0.0305  -10.2504 C.ar      1 <0>        -0.1309
      4 C4          6.9984   -0.9504   -8.0532 C.ar      1 <0>        -0.1275
      5 C5          5.8681    0.8432   -9.2119 C.ar      1 <0>        -0.1272
      6 C6          6.5921    0.3776   -8.1201 C.ar      1 <0>        -0.0843
      7 C7          6.1974    2.2868   -4.7798 C.2       1 <0>         0.6709
      8 C8          5.2358    2.3798    1.5634 C.2       1 <0>         0.4867
      9 C9          5.6522    1.1980    2.3894 C.2       1 <0>         0.5883
     10 C10         5.7098    2.8119   -1.6475 C.2       1 <0>         0.6572
     11 C11         9.7158   -1.2429    1.0016 C.3       1 <0>        -0.0802
     12 C12         8.2405   -1.5331    0.7382 C.3       1 <0>        -0.0765
     13 C13         9.9090    0.0370    1.8104 C.3       1 <0>        -0.0774
     14 C14         7.4308   -1.5537    2.0353 C.3       1 <0>        -0.0953
     15 C15         9.0955    0.0125    3.1053 C.3       1 <0>        -0.0906
     16 C16         3.6723    3.8570   -2.6681 C.3       1 <0>        -0.0871
     17 C17         4.4858    1.7161   -6.5463 C.3       1 <0>        -0.0716
     18 C18         2.9535    2.6133   -3.1875 C.3       1 <0>         0.1333
     19 C19         3.4659    2.2898   -5.5476 C.3       1 <0>         0.1246
     20 C20         5.1372    3.5153   -2.8394 C.3       1 <0>         0.0606
     21 C21         7.6074   -0.2769    2.8680 C.3       1 <0>         0.1012
     22 C22         5.8481    1.3265   -5.9256 C.3       1 <0>         0.1554
     23 C23         6.9383    1.3175   -7.0029 C.3       1 <0>        -0.0356
     24 C24         7.6485    3.7409    2.8432 C.3       1 <0>        -0.0795
     25 C25         8.2774    4.8743    3.6620 C.3       1 <0>        -0.1203
     26 C26         6.9719    4.2276    1.5544 C.3       1 <0>        -0.0920
     27 C27         8.9284    4.3945    4.9589 C.3       1 <0>         0.1502
     28 C28         6.2906    3.1130    0.7514 C.3       1 <0>         0.0224
     29 N1          5.1345    2.5635   -3.9339 N.am      1 <0>        -0.3553
     30 N2          3.8653    2.0037   -4.1710 N.3       1 <0>        -0.4320
     31 N3          5.7803   -0.0123   -5.3216 N.3       1 <0>        -0.9031
     32 N4          9.4866    5.5266    5.6910 N.3       1 <0>        -0.9068
     33 N5          6.9710    0.8584    2.1962 N.am      1 <0>        -0.5526
     34 N6          5.7762    3.5917   -0.5046 N.am      1 <0>        -0.5576
     35 O1          7.3278    2.7504   -4.6301 O.2       1 <0>        -0.6710
     36 O2          4.0675    2.7325    1.6631 O.2       1 <0>        -0.4901
     37 O3          4.8107    0.6708    3.0985 O.2       1 <0>        -0.5902
     38 O4          6.0670    1.6440   -1.7490 O.2       1 <0>        -0.5833
     39 H1          5.6997   -2.0446  -10.9989 H         1 <0>         0.1320
     40 H2          6.9911   -2.8626   -9.0451 H         1 <0>         0.1324
     41 H3          4.9808    0.3274  -11.1059 H         1 <0>         0.1328
     42 H4          7.5644   -1.3176   -7.2012 H         1 <0>         0.1324
     43 H5          5.5489    1.8806   -9.2673 H         1 <0>         0.1434
     44 H6         10.1593   -2.0859    1.5458 H         1 <0>         0.0405
     45 H7         10.2516   -1.1619    0.0491 H         1 <0>         0.0421
     46 H8          7.8341   -0.7738    0.0592 H         1 <0>         0.0362
     47 H9          8.1416   -2.4986    0.2289 H         1 <0>         0.0439
     48 H10        10.9714    0.1649    2.0472 H         1 <0>         0.0350
     49 H11         9.6136    0.9012    1.2032 H         1 <0>         0.0428
     50 H12         6.3711   -1.7044    1.7959 H         1 <0>         0.0663
     51 H13         7.7466   -2.4163    2.6358 H         1 <0>         0.0466
     52 H14         9.5071   -0.7601    3.7673 H         1 <0>         0.0493
     53 H15         9.2152    0.9716    3.6236 H         1 <0>         0.0520
     54 H16         3.4181    4.7133   -3.3051 H         1 <0>         0.0915
     55 H17         3.3944    4.0971   -1.6373 H         1 <0>         0.0601
     56 H18         4.0497    0.8441   -7.0524 H         1 <0>         0.0688
     57 H19         4.6431    2.4675   -7.3320 H         1 <0>         0.0630
     58 H20         2.8170    1.9026   -2.3635 H         1 <0>         0.0807
     59 H21         1.9588    2.8453   -3.5837 H         1 <0>         0.0380
     60 H22         3.3744    3.3723   -5.7123 H         1 <0>         0.0484
     61 H23         2.4818    1.8533   -5.7569 H         1 <0>         0.0697
     62 H24         5.7646    4.3810   -3.0694 H         1 <0>         0.0843
     63 H25         7.0921   -0.3851    3.8281 H         1 <0>         0.0831
     64 H26         7.8868    1.0311   -6.5450 H         1 <0>         0.0704
     65 H27         7.0672    2.3317   -7.3854 H         1 <0>         0.0718
     66 H28         8.4445    3.0306    2.5915 H         1 <0>         0.0606
     67 H29         6.9275    3.2007    3.4679 H         1 <0>         0.0458
     68 H30         9.0354    5.3625    3.0356 H         1 <0>         0.0375
     69 H31         7.5157    5.6329    3.8824 H         1 <0>         0.0392
     70 H32         7.7210    4.7221    0.9235 H         1 <0>         0.0606
     71 H33         6.2174    4.9831    1.8035 H         1 <0>         0.0579
     72 H34         9.7251    3.6753    4.7403 H         1 <0>         0.0571
     73 H35         8.1937    3.8977    5.5994 H         1 <0>         0.0503
     74 H36         7.0421    2.3587    0.4881 H         1 <0>         0.0993
     75 H37         4.9287   -0.2795   -4.8849 H         1 <0>         0.3700
     76 H38         6.6336   -0.5056   -5.1950 H         1 <0>         0.3660
     77 H39        10.0430    5.3371    6.4969 H         1 <0>         0.3465
     78 H40         9.1331    6.4373    5.4892 H         1 <0>         0.3446
     79 H41         7.5283    1.4199    1.5594 H         1 <0>         0.3148
     80 H42         5.4441    4.5531   -0.5557 H         1 <0>         0.3220
@<TRIPOS>BOND
     1    1    2 ar
     2    1    3 ar
     3    2    4 ar
     4    3    5 ar
     5    4    6 ar
     6    5    6 ar
     7    6   23 1
     8    7   22 1
     9    7   29 am
    10    7   35 2
    11    8    9 1
    12    8   28 1
    13    8   36 2
    14    9   33 am
    15    9   37 2
    16   10   20 1
    17   10   34 am
    18   10   38 2
    19   11   12 1
    20   11   13 1
    21   12   14 1
    22   13   15 1
    23   14   21 1
    24   15   21 1
    25   16   18 1
    26   16   20 1
    27   17   19 1
    28   17   22 1
    29   18   30 1
    30   19   30 1
    31   20   29 1
    32   21   33 1
    33   22   23 1
    34   22   31 1
    35   24   25 1
    36   24   26 1
    37   25   27 1
    38   26   28 1
    39   27   32 1
    40   28   34 1
    41   29   30 1
    42    1   39 1
    43    2   40 1
    44    3   41 1
    45    4   42 1
    46    5   43 1
    47   11   44 1
    48   11   45 1
    49   12   46 1
    50   12   47 1
    51   13   48 1
    52   13   49 1
    53   14   50 1
    54   14   51 1
    55   15   52 1
    56   15   53 1
    57   16   54 1
    58   16   55 1
    59   17   56 1
    60   17   57 1
    61   18   58 1
    62   18   59 1
    63   19   60 1
    64   19   61 1
    65   20   62 1
    66   21   63 1
    67   23   64 1
    68   23   65 1
    69   24   66 1
    70   24   67 1
    71   25   68 1
    72   25   69 1
    73   26   70 1
    74   26   71 1
    75   27   72 1
    76   27   73 1
    77   28   74 1
    78   31   75 1
    79   31   76 1
    80   32   77 1
    81   32   78 1
    82   33   79 1
    83   34   80 1
@<TRIPOS>MOLECULE
1a46_ligand_398
   80    83     0     0     0
SMALL
USER_CHARGES

mmff94s_NoEstat = 94.61
@<TRIPOS>ATOM
      1 C1         -3.7305   -5.9204  -11.3537 C.ar      1 <0>        -0.1300
      2 C2         -2.4262   -5.5183  -11.6410 C.ar      1 <0>        -0.1323
      3 C3         -4.6750   -4.9808  -10.9404 C.ar      1 <0>        -0.1309
      4 C4         -2.0662   -4.1766  -11.5149 C.ar      1 <0>        -0.1275
      5 C5         -4.3150   -3.6391  -10.8142 C.ar      1 <0>        -0.1272
      6 C6         -3.0129   -3.2458  -11.1023 C.ar      1 <0>        -0.0843
      7 C7         -1.7147   -0.0189   -9.4111 C.2       1 <0>         0.6709
      8 C8          2.7796    3.2097   -6.1637 C.2       1 <0>         0.4867
      9 C9          4.2587    3.4565   -6.1009 C.2       1 <0>         0.5883
     10 C10         0.2181    1.9581   -7.7739 C.2       1 <0>         0.6572
     11 C11         8.9757    1.4639   -7.8314 C.3       1 <0>        -0.0802
     12 C12         8.5623    1.6823   -6.3787 C.3       1 <0>        -0.0765
     13 C13         8.3422    2.4973   -8.7587 C.3       1 <0>        -0.0774
     14 C14         7.0427    1.7177   -6.2244 C.3       1 <0>        -0.0953
     15 C15         6.8224    2.5330   -8.6075 C.3       1 <0>        -0.0906
     16 C16        -1.7326    1.7367   -6.2145 C.3       1 <0>        -0.0871
     17 C17        -3.1871   -1.8587   -8.5042 C.3       1 <0>        -0.0716
     18 C18        -1.5889    0.2745   -5.7969 C.3       1 <0>         0.1333
     19 C19        -3.0480   -1.1203   -7.1617 C.3       1 <0>         0.1246
     20 C20        -1.2590    1.7411   -7.6524 C.3       1 <0>         0.0606
     21 C21         6.4119    2.7646   -7.1492 C.3       1 <0>         0.1012
     22 C22        -2.1125   -1.4947   -9.5555 C.3       1 <0>         0.1554
     23 C23        -2.6257   -1.8026  -10.9666 C.3       1 <0>        -0.0356
     24 C24         3.6080    5.6033   -7.8654 C.3       1 <0>        -0.0795
     25 C25         3.7321    7.1143   -8.0937 C.3       1 <0>        -0.1203
     26 C26         2.1570    5.1335   -7.6933 C.3       1 <0>        -0.0920
     27 C27         5.1782    7.5875   -8.2387 C.3       1 <0>         0.1502
     28 C28         2.0196    3.6328   -7.4097 C.3       1 <0>         0.0224
     29 N1         -1.5278    0.3875   -8.0990 N.am      1 <0>        -0.3553
     30 N2         -1.7250   -0.5121   -7.0349 N.3       1 <0>        -0.4320
     31 N3         -0.8818   -2.2667   -9.3297 N.3       1 <0>        -0.9031
     32 N4          5.8065    6.9420   -9.3866 N.3       1 <0>        -0.9068
     33 N5          4.9558    2.7197   -7.0299 N.am      1 <0>        -0.5526
     34 N6          0.6426    3.2153   -7.3763 N.am      1 <0>        -0.5576
     35 O1         -1.5651    0.7213  -10.3831 O.2       1 <0>        -0.6710
     36 O2          2.2586    2.7495   -5.1557 O.2       1 <0>        -0.4901
     37 O3          4.6736    4.2333   -5.2564 O.2       1 <0>        -0.5902
     38 O4          0.9290    1.0536   -8.1959 O.2       1 <0>        -0.5833
     39 H1         -4.0108   -6.9651  -11.4519 H         1 <0>         0.1320
     40 H2         -1.6909   -6.2500  -11.9629 H         1 <0>         0.1324
     41 H3         -5.6906   -5.2940  -10.7166 H         1 <0>         0.1328
     42 H4         -1.0476   -3.8726  -11.7408 H         1 <0>         0.1324
     43 H5         -5.0575   -2.9141  -10.4915 H         1 <0>         0.1434
     44 H6         10.0672    1.5130   -7.9155 H         1 <0>         0.0405
     45 H7          8.6750    0.4576   -8.1481 H         1 <0>         0.0421
     46 H8          8.9775    0.8840   -5.7533 H         1 <0>         0.0362
     47 H9          8.9870    2.6264   -6.0159 H         1 <0>         0.0439
     48 H10         8.7538    3.4895   -8.5363 H         1 <0>         0.0350
     49 H11         8.6037    2.2687   -9.7981 H         1 <0>         0.0428
     50 H12         6.6307    0.7243   -6.4460 H         1 <0>         0.0663
     51 H13         6.7838    1.9350   -5.1810 H         1 <0>         0.0466
     52 H14         6.4082    3.3249   -9.2434 H         1 <0>         0.0493
     53 H15         6.3975    1.5882   -8.9715 H         1 <0>         0.0520
     54 H16        -2.7915    2.0208   -6.1758 H         1 <0>         0.0915
     55 H17        -1.1685    2.4118   -5.5637 H         1 <0>         0.0601
     56 H18        -3.1756   -2.9428   -8.3269 H         1 <0>         0.0688
     57 H19        -4.1842   -1.6345   -8.9071 H         1 <0>         0.0630
     58 H20        -0.5812    0.1087   -5.3971 H         1 <0>         0.0807
     59 H21        -2.2993   -0.0031   -5.0104 H         1 <0>         0.0380
     60 H22        -3.8377   -0.3598   -7.0886 H         1 <0>         0.0484
     61 H23        -3.2188   -1.8335   -6.3463 H         1 <0>         0.0697
     62 H24        -1.7729    2.4744   -8.2803 H         1 <0>         0.0843
     63 H25         6.7153    3.7695   -6.8335 H         1 <0>         0.0831
     64 H26        -1.8489   -1.5475  -11.6898 H         1 <0>         0.0704
     65 H27        -3.4798   -1.1578  -11.1818 H         1 <0>         0.0718
     66 H28         4.0550    5.0981   -8.7294 H         1 <0>         0.0606
     67 H29         4.2035    5.3200   -6.9896 H         1 <0>         0.0458
     68 H30         3.1762    7.3642   -9.0068 H         1 <0>         0.0375
     69 H31         3.2423    7.6502   -7.2709 H         1 <0>         0.0392
     70 H32         1.5916    5.3838   -8.5996 H         1 <0>         0.0606
     71 H33         1.6928    5.6841   -6.8667 H         1 <0>         0.0579
     72 H34         5.7475    7.3513   -7.3332 H         1 <0>         0.0571
     73 H35         5.2173    8.6706   -8.3874 H         1 <0>         0.0503
     74 H36         2.4714    3.0747   -8.2388 H         1 <0>         0.0993
     75 H37        -0.6260   -2.4640   -8.3900 H         1 <0>         0.3700
     76 H38        -0.2603   -2.3800  -10.0968 H         1 <0>         0.3660
     77 H39         6.7859    7.0740   -9.5225 H         1 <0>         0.3465
     78 H40         5.2151    6.5685  -10.0979 H         1 <0>         0.3446
     79 H41         4.4356    2.1176   -7.6610 H         1 <0>         0.3148
     80 H42        -0.0552    3.8781   -7.0434 H         1 <0>         0.3220
@<TRIPOS>BOND
     1    1    2 ar
     2    1    3 ar
     3    2    4 ar
     4    3    5 ar
     5    4    6 ar
     6    5    6 ar
     7    6   23 1
     8    7   22 1
     9    7   29 am
    10    7   35 2
    11    8    9 1
    12    8   28 1
    13    8   36 2
    14    9   33 am
    15    9   37 2
    16   10   20 1
    17   10   34 am
    18   10   38 2
    19   11   12 1
    20   11   13 1
    21   12   14 1
    22   13   15 1
    23   14   21 1
    24   15   21 1
    25   16   18 1
    26   16   20 1
    27   17   19 1
    28   17   22 1
    29   18   30 1
    30   19   30 1
    31   20   29 1
    32   21   33 1
    33   22   23 1
    34   22   31 1
    35   24   25 1
    36   24   26 1
    37   25   27 1
    38   26   28 1
    39   27   32 1
    40   28   34 1
    41   29   30 1
    42    1   39 1
    43    2   40 1
    44    3   41 1
    45    4   42 1
    46    5   43 1
    47   11   44 1
    48   11   45 1
    49   12   46 1
    50   12   47 1
    51   13   48 1
    52   13   49 1
    53   14   50 1
    54   14   51 1
    55   15   52 1
    56   15   53 1
    57   16   54 1
    58   16   55 1
    59   17   56 1
    60   17   57 1
    61   18   58 1
    62   18   59 1
    63   19   60 1
    64   19   61 1
    65   20   62 1
    66   21   63 1
    67   23   64 1
    68   23   65 1
    69   24   66 1
    70   24   67 1
    71   25   68 1
    72   25   69 1
    73   26   70 1
    74   26   71 1
    75   27   72 1
    76   27   73 1
    77   28   74 1
    78   31   75 1
    79   31   76 1
    80   32   77 1
    81   32   78 1
    82   33   79 1
    83   34   80 1
@<TRIPOS>MOLECULE
1a46_ligand_399
   80    83     0     0     0
SMALL
USER_CHARGES

mmff94s_NoEstat = 94.64
@<TRIPOS>ATOM
      1 C1         -1.3866   -0.9098   -5.3262 C.ar      1 <0>        -0.1300
      2 C2         -0.7865   -1.2909   -4.1261 C.ar      1 <0>        -0.1323
      3 C3         -0.7738    0.0422   -6.1410 C.ar      1 <0>        -0.1309
      4 C4          0.4264   -0.7199   -3.7407 C.ar      1 <0>        -0.1275
      5 C5          0.4391    0.6133   -5.7556 C.ar      1 <0>        -0.1272
      6 C6          1.0312    0.2285   -4.5579 C.ar      1 <0>        -0.0843
      7 C7          3.4461    2.7409   -2.8804 C.2       1 <0>         0.6709
      8 C8          5.2358    2.3798    1.5634 C.2       1 <0>         0.4867
      9 C9          4.0737    1.7586    0.8450 C.2       1 <0>         0.5883
     10 C10         4.7954    4.5647   -0.6048 C.2       1 <0>         0.6572
     11 C11         4.4065   -3.0273   -0.3301 C.3       1 <0>        -0.0802
     12 C12         4.6731   -1.7761   -1.1628 C.3       1 <0>        -0.0765
     13 C13         3.9965   -2.6835    1.0994 C.3       1 <0>        -0.0774
     14 C14         3.4850   -0.8139   -1.1289 C.3       1 <0>        -0.0953
     15 C15         2.8097   -1.7194    1.1279 C.3       1 <0>        -0.0906
     16 C16         3.8049    6.2915   -2.1287 C.3       1 <0>        -0.0871
     17 C17         1.2717    3.1335   -4.1023 C.3       1 <0>        -0.0716
     18 C18         2.3155    6.0451   -1.8960 C.3       1 <0>         0.1333
     19 C19         1.4367    4.5929   -3.6442 C.3       1 <0>         0.1246
     20 C20         4.4137    4.9104   -2.0113 C.3       1 <0>         0.0606
     21 C21         3.0526   -0.4516    0.2982 C.3       1 <0>         0.1012
     22 C22         2.1141    2.1082   -3.3074 C.3       1 <0>         0.1554
     23 C23         2.3358    0.8427   -4.1433 C.3       1 <0>        -0.0356
     24 C24         7.6485    3.7409    2.8432 C.3       1 <0>        -0.0795
     25 C25         8.2774    4.8743    3.6620 C.3       1 <0>        -0.1203
     26 C26         6.9719    4.2276    1.5544 C.3       1 <0>        -0.0920
     27 C27         8.9284    4.3945    4.9589 C.3       1 <0>         0.1502
     28 C28         6.2906    3.1130    0.7514 C.3       1 <0>         0.0224
     29 N1          3.3234    4.0296   -2.3846 N.am      1 <0>        -0.3553
     30 N2          2.0658    4.6585   -2.3264 N.3       1 <0>        -0.4320
     31 N3          1.4316    1.7288   -2.0617 N.3       1 <0>        -0.9031
     32 N4          9.4866    5.5266    5.6910 N.3       1 <0>        -0.9068
     33 N5          4.0688    0.3864    0.9385 N.am      1 <0>        -0.5526
     34 N6          5.7762    3.5917   -0.5046 N.am      1 <0>        -0.5576
     35 O1          4.5174    2.1404   -2.9635 O.2       1 <0>        -0.6710
     36 O2          5.3022    2.1819    2.7699 O.2       1 <0>        -0.4901
     37 O3          3.3003    2.4996    0.2605 O.2       1 <0>        -0.5902
     38 O4          4.2448    5.1367    0.3286 O.2       1 <0>        -0.5833
     39 H1         -2.3310   -1.3544   -5.6263 H         1 <0>         0.1320
     40 H2         -1.2637   -2.0322   -3.4918 H         1 <0>         0.1324
     41 H3         -1.2413    0.3390   -7.0753 H         1 <0>         0.1328
     42 H4          0.8865   -1.0229   -2.8039 H         1 <0>         0.1324
     43 H5          0.9091    1.3543   -6.3967 H         1 <0>         0.1434
     44 H6          3.6105   -3.6151   -0.8039 H         1 <0>         0.0405
     45 H7          5.3022   -3.6585   -0.3154 H         1 <0>         0.0421
     46 H8          5.5706   -1.2707   -0.7862 H         1 <0>         0.0362
     47 H9          4.8830   -2.0630   -2.1996 H         1 <0>         0.0439
     48 H10         3.7359   -3.6020    1.6377 H         1 <0>         0.0350
     49 H11         4.8487   -2.2383    1.6270 H         1 <0>         0.0428
     50 H12         3.7413    0.0946   -1.6874 H         1 <0>         0.0663
     51 H13         2.6383   -1.2788   -1.6497 H         1 <0>         0.0466
     52 H14         1.9241   -2.2364    0.7368 H         1 <0>         0.0493
     53 H15         2.5879   -1.4524    2.1683 H         1 <0>         0.0520
     54 H16         3.9529    6.6727   -3.1467 H         1 <0>         0.0915
     55 H17         4.2210    7.0169   -1.4230 H         1 <0>         0.0601
     56 H18         0.2104    2.8539   -4.0534 H         1 <0>         0.0688
     57 H19         1.5429    3.0844   -5.1656 H         1 <0>         0.0630
     58 H20         2.1000    6.1125   -0.8228 H         1 <0>         0.0807
     59 H21         1.6891    6.7894   -2.3998 H         1 <0>         0.0380
     60 H22         2.0325    5.1365   -4.3904 H         1 <0>         0.0484
     61 H23         0.4495    5.0696   -3.6188 H         1 <0>         0.0697
     62 H24         5.2834    4.7591   -2.6569 H         1 <0>         0.0843
     63 H25         2.1402    0.1531    0.2678 H         1 <0>         0.0831
     64 H26         2.9230    0.1310   -3.5601 H         1 <0>         0.0704
     65 H27         2.9322    1.0978   -5.0213 H         1 <0>         0.0718
     66 H28         8.4445    3.0306    2.5915 H         1 <0>         0.0606
     67 H29         6.9275    3.2007    3.4679 H         1 <0>         0.0458
     68 H30         9.0354    5.3625    3.0356 H         1 <0>         0.0375
     69 H31         7.5157    5.6329    3.8824 H         1 <0>         0.0392
     70 H32         7.7210    4.7221    0.9235 H         1 <0>         0.0606
     71 H33         6.2174    4.9831    1.8035 H         1 <0>         0.0579
     72 H34         9.7251    3.6753    4.7403 H         1 <0>         0.0571
     73 H35         8.1937    3.8977    5.5994 H         1 <0>         0.0503
     74 H36         7.0421    2.3587    0.4881 H         1 <0>         0.0993
     75 H37         0.9075    2.4291   -1.5903 H         1 <0>         0.3700
     76 H38         1.6843    0.8646   -1.6413 H         1 <0>         0.3660
     77 H39        10.0430    5.3371    6.4969 H         1 <0>         0.3465
     78 H40         9.1331    6.4373    5.4892 H         1 <0>         0.3446
     79 H41         4.8027   -0.0660    1.4755 H         1 <0>         0.3148
     80 H42         6.1527    3.1949   -1.3636 H         1 <0>         0.3220
@<TRIPOS>BOND
     1    1    2 ar
     2    1    3 ar
     3    2    4 ar
     4    3    5 ar
     5    4    6 ar
     6    5    6 ar
     7    6   23 1
     8    7   22 1
     9    7   29 am
    10    7   35 2
    11    8    9 1
    12    8   28 1
    13    8   36 2
    14    9   33 am
    15    9   37 2
    16   10   20 1
    17   10   34 am
    18   10   38 2
    19   11   12 1
    20   11   13 1
    21   12   14 1
    22   13   15 1
    23   14   21 1
    24   15   21 1
    25   16   18 1
    26   16   20 1
    27   17   19 1
    28   17   22 1
    29   18   30 1
    30   19   30 1
    31   20   29 1
    32   21   33 1
    33   22   23 1
    34   22   31 1
    35   24   25 1
    36   24   26 1
    37   25   27 1
    38   26   28 1
    39   27   32 1
    40   28   34 1
    41   29   30 1
    42    1   39 1
    43    2   40 1
    44    3   41 1
    45    4   42 1
    46    5   43 1
    47   11   44 1
    48   11   45 1
    49   12   46 1
    50   12   47 1
    51   13   48 1
    52   13   49 1
    53   14   50 1
    54   14   51 1
    55   15   52 1
    56   15   53 1
    57   16   54 1
    58   16   55 1
    59   17   56 1
    60   17   57 1
    61   18   58 1
    62   18   59 1
    63   19   60 1
    64   19   61 1
    65   20   62 1
    66   21   63 1
    67   23   64 1
    68   23   65 1
    69   24   66 1
    70   24   67 1
    71   25   68 1
    72   25   69 1
    73   26   70 1
    74   26   71 1
    75   27   72 1
    76   27   73 1
    77   28   74 1
    78   31   75 1
    79   31   76 1
    80   32   77 1
    81   32   78 1
    82   33   79 1
    83   34   80 1
@<TRIPOS>MOLECULE
1a46_ligand_400
   80    83     0     0     0
SMALL
USER_CHARGES

mmff94s_NoEstat = 94.73
@<TRIPOS>ATOM
      1 C1         11.2165    5.1344   -9.5699 C.ar      1 <0>        -0.1300
      2 C2         11.8039    4.7828   -8.3546 C.ar      1 <0>        -0.1323
      3 C3          9.9328    5.6797   -9.5922 C.ar      1 <0>        -0.1309
      4 C4         11.1077    4.9765   -7.1616 C.ar      1 <0>        -0.1275
      5 C5          9.2366    5.8734   -8.3991 C.ar      1 <0>        -0.1272
      6 C6          9.8285    5.5206   -7.1916 C.ar      1 <0>        -0.0843
      7 C7          7.4784    4.7027   -4.2310 C.2       1 <0>         0.6709
      8 C8          5.2358    2.3798    1.5634 C.2       1 <0>         0.4867
      9 C9          4.9672    2.8271    2.9706 C.2       1 <0>         0.5883
     10 C10         6.2126    3.1256   -1.7338 C.2       1 <0>         0.6572
     11 C11         2.4922    7.0459    3.6579 C.3       1 <0>        -0.0802
     12 C12         3.9725    7.1522    3.3012 C.3       1 <0>        -0.0765
     13 C13         2.0229    5.5946    3.7154 C.3       1 <0>        -0.0774
     14 C14         4.8393    6.3122    4.2403 C.3       1 <0>        -0.0953
     15 C15         2.8941    4.7584    4.6538 C.3       1 <0>        -0.0906
     16 C16         4.3868    2.9365   -3.4414 C.3       1 <0>        -0.0871
     17 C17         7.2608    4.1580   -6.6868 C.3       1 <0>        -0.0716
     18 C18         5.0537    2.0131   -4.4592 C.3       1 <0>         0.1333
     19 C19         6.0339    3.3363   -6.2552 C.3       1 <0>         0.1246
     20 C20         5.5372    3.7637   -2.9085 C.3       1 <0>         0.0606
     21 C21         4.3883    4.8474    4.3160 C.3       1 <0>         0.1012
     22 C22         8.2469    4.4948   -5.5436 C.3       1 <0>         0.1554
     23 C23         9.0796    5.7289   -5.9083 C.3       1 <0>        -0.0356
     24 C24         8.0800    4.9598    0.7851 C.3       1 <0>        -0.0795
     25 C25         8.7880    6.0338    1.6192 C.3       1 <0>        -0.1203
     26 C26         6.9719    4.2276    1.5544 C.3       1 <0>        -0.0920
     27 C27         9.9095    6.7454    0.8629 C.3       1 <0>         0.1502
     28 C28         6.2906    3.1130    0.7514 C.3       1 <0>         0.0224
     29 N1          6.4904    3.7576   -4.0019 N.am      1 <0>        -0.3553
     30 N2          6.2438    2.7368   -4.9387 N.3       1 <0>        -0.4320
     31 N3          9.1632    3.3713   -5.2994 N.3       1 <0>        -0.9031
     32 N4          9.3732    7.4215   -0.3138 N.3       1 <0>        -0.9068
     33 N5          4.6631    4.1662    3.0490 N.am      1 <0>        -0.5526
     34 N6          5.7762    3.5917   -0.5046 N.am      1 <0>        -0.5576
     35 O1          7.7368    5.6223   -3.4546 O.2       1 <0>        -0.6710
     36 O2          4.5176    1.4899    1.1258 O.2       1 <0>        -0.4901
     37 O3          5.0632    1.9994    3.8620 O.2       1 <0>        -0.5902
     38 O4          7.0689    2.2691   -1.9210 O.2       1 <0>        -0.5833
     39 H1         11.7586    4.9835  -10.4989 H         1 <0>         0.1320
     40 H2         12.8034    4.3582   -8.3374 H         1 <0>         0.1324
     41 H3          9.4755    5.9533  -10.5385 H         1 <0>         0.1328
     42 H4         11.5733    4.6996   -6.2195 H         1 <0>         0.1324
     43 H5          8.2369    6.2989   -8.4262 H         1 <0>         0.1434
     44 H6          2.3189    7.5216    4.6312 H         1 <0>         0.0405
     45 H7          1.8951    7.5980    2.9232 H         1 <0>         0.0421
     46 H8          4.1234    6.8253    2.2653 H         1 <0>         0.0362
     47 H9          4.2878    8.2008    3.3513 H         1 <0>         0.0439
     48 H10         0.9809    5.5587    4.0532 H         1 <0>         0.0350
     49 H11         2.0439    5.1635    2.7072 H         1 <0>         0.0428
     50 H12         5.8844    6.3686    3.9125 H         1 <0>         0.0663
     51 H13         4.7977    6.7495    5.2460 H         1 <0>         0.0466
     52 H14         2.7407    5.1063    5.6833 H         1 <0>         0.0493
     53 H15         2.5612    3.7140    4.6186 H         1 <0>         0.0520
     54 H16         3.6738    3.5897   -3.9595 H         1 <0>         0.0915
     55 H17         3.8488    2.3812   -2.6670 H         1 <0>         0.0601
     56 H18         7.7933    3.6252   -7.4865 H         1 <0>         0.0688
     57 H19         6.8963    5.0889   -7.1420 H         1 <0>         0.0630
     58 H20         5.3910    1.1000   -3.9542 H         1 <0>         0.0807
     59 H21         4.3651    1.7081   -5.2548 H         1 <0>         0.0380
     60 H22         5.1498    3.9888   -6.2523 H         1 <0>         0.0484
     61 H23         5.8493    2.5563   -7.0035 H         1 <0>         0.0697
     62 H24         5.2534    4.7844   -2.6367 H         1 <0>         0.0843
     63 H25         4.9731    4.3173    5.0750 H         1 <0>         0.0831
     64 H26         9.7736    5.9418   -5.0932 H         1 <0>         0.0704
     65 H27         8.4167    6.5923   -5.9906 H         1 <0>         0.0718
     66 H28         7.6494    5.4516   -0.0948 H         1 <0>         0.0606
     67 H29         8.8216    4.2418    0.4157 H         1 <0>         0.0458
     68 H30         8.0356    6.7709    1.9287 H         1 <0>         0.0375
     69 H31         9.1825    5.5824    2.5383 H         1 <0>         0.0392
     70 H32         6.2171    4.9575    1.8728 H         1 <0>         0.0606
     71 H33         7.3929    3.7874    2.4660 H         1 <0>         0.0579
     72 H34        10.6735    6.0252    0.5509 H         1 <0>         0.0571
     73 H35        10.3920    7.4923    1.5001 H         1 <0>         0.0503
     74 H36         7.0421    2.3587    0.4881 H         1 <0>         0.0993
     75 H37         8.8040    2.4509   -5.4050 H         1 <0>         0.3700
     76 H38        10.0264    3.5689   -4.8487 H         1 <0>         0.3660
     77 H39        10.0182    7.8250   -0.9589 H         1 <0>         0.3465
     78 H40         8.3988    7.6342   -0.3305 H         1 <0>         0.3446
     79 H41         4.6275    4.7068    2.1898 H         1 <0>         0.3148
     80 H42         5.0545    4.3100   -0.4888 H         1 <0>         0.3220
@<TRIPOS>BOND
     1    1    2 ar
     2    1    3 ar
     3    2    4 ar
     4    3    5 ar
     5    4    6 ar
     6    5    6 ar
     7    6   23 1
     8    7   22 1
     9    7   29 am
    10    7   35 2
    11    8    9 1
    12    8   28 1
    13    8   36 2
    14    9   33 am
    15    9   37 2
    16   10   20 1
    17   10   34 am
    18   10   38 2
    19   11   12 1
    20   11   13 1
    21   12   14 1
    22   13   15 1
    23   14   21 1
    24   15   21 1
    25   16   18 1
    26   16   20 1
    27   17   19 1
    28   17   22 1
    29   18   30 1
    30   19   30 1
    31   20   29 1
    32   21   33 1
    33   22   23 1
    34   22   31 1
    35   24   25 1
    36   24   26 1
    37   25   27 1
    38   26   28 1
    39   27   32 1
    40   28   34 1
    41   29   30 1
    42    1   39 1
    43    2   40 1
    44    3   41 1
    45    4   42 1
    46    5   43 1
    47   11   44 1
    48   11   45 1
    49   12   46 1
    50   12   47 1
    51   13   48 1
    52   13   49 1
    53   14   50 1
    54   14   51 1
    55   15   52 1
    56   15   53 1
    57   16   54 1
    58   16   55 1
    59   17   56 1
    60   17   57 1
    61   18   58 1
    62   18   59 1
    63   19   60 1
    64   19   61 1
    65   20   62 1
    66   21   63 1
    67   23   64 1
    68   23   65 1
    69   24   66 1
    70   24   67 1
    71   25   68 1
    72   25   69 1
    73   26   70 1
    74   26   71 1
    75   27   72 1
    76   27   73 1
    77   28   74 1
    78   31   75 1
    79   31   76 1
    80   32   77 1
    81   32   78 1
    82   33   79 1
    83   34   80 1
