@<TRIPOS>MOLECULE
1dwc_ligand_0
   72    74     0     0     0
SMALL
USER_CHARGES

@<TRIPOS>ATOM
      1 C1         19.3100  -16.8880   20.7990 C.ar      1 <0>        -0.1945
      2 C2         20.1780  -16.3680   21.7640 C.ar      1 <0>        -0.0294
      3 C3         17.9870  -17.2280   21.1170 C.ar      1 <0>        -0.0143
      4 C4         19.6820  -16.1350   23.0410 C.ar      1 <0>        -0.1552
      5 C5         18.3330  -16.4560   23.3960 C.ar      1 <0>         0.3076
      6 C6         17.5410  -17.0930   22.4000 C.ar      1 <0>        -0.4908
      7 C7         15.7860  -12.8260   18.7210 C.2       1 <0>         0.5994
      8 C8         16.2500  -14.0190   21.8350 C.2       1 <0>         0.6462
      9 C9         11.3130  -11.3870   23.8410 C.cat     1 <0>         0.6305
     10 C10        20.5570  -15.6320   24.1030 C.3       1 <0>        -0.0319
     11 C11        19.1790  -12.9570   20.1720 C.3       1 <0>        -0.0918
     12 C12        17.8390  -14.3370   18.6090 C.3       1 <0>        -0.0841
     13 C13        17.9840  -12.5820   20.9830 C.3       1 <0>         0.0870
     14 C14        18.6490  -15.6780   25.6020 C.3       1 <0>         0.2023
     15 C15        16.5970  -13.9270   19.4020 C.3       1 <0>         0.0778
     16 C16        19.7490  -14.8430   25.0680 C.3       1 <0>        -0.0746
     17 C17        18.8680  -13.2660   18.7170 C.3       1 <0>        -0.0681
     18 C18        20.6220  -14.3800   26.2180 C.3       1 <0>        -0.0944
     19 C19        20.1100  -13.7580   18.0050 C.3       1 <0>        -0.0918
     20 C20        13.1250  -13.9300   22.4740 C.3       1 <0>        -0.1192
     21 C21        13.8710  -14.2090   21.2120 C.3       1 <0>        -0.0916
     22 C22        12.0040  -12.9450   22.1210 C.3       1 <0>         0.1883
     23 C23        15.1290  -14.9830   21.5020 C.3       1 <0>         0.1952
     24 N1         17.8070  -16.2180   24.5720 N.pl3     1 <0>        -0.7670
     25 N2         16.9610  -13.5500   20.7620 N.am      1 <0>        -0.4509
     26 N3         12.1880  -10.5030   23.2930 N.pl3     1 <0>        -0.8477
     27 N4         10.6630  -11.1180   24.9910 N.pl3     1 <0>        -0.8633
     28 N5         11.2050  -12.6150   23.3020 N.pl3     1 <0>        -0.7419
     29 N6         14.9250  -15.9320   22.5940 N.pl3     1 <0>        -0.8860
     30 O1         15.6770  -12.9570   17.5070 O.2       1 <0>        -0.5199
     31 O2         16.4010  -13.5330   22.9360 O.2       1 <0>        -0.6131
     32 O3         15.6800  -17.7820   24.1040 O.2       1 <0>        -0.6576
     33 O4         15.4970  -18.2150   21.5990 O.2       1 <0>        -0.6482
     34 O5         14.9050  -12.3030   19.3620 O.3       1 <0>        -0.6303
     35 S1         15.8160  -17.3680   22.7320 S.o2      1 <0>         1.5193
     36 H1         19.6685  -17.0319   19.7798 H         1 <0>         0.1426
     37 H2         21.2180  -16.1508   21.5206 H         1 <0>         0.1398
     38 H3         17.3167  -17.5991   20.3417 H         1 <0>         0.1599
     39 H4         21.3270  -14.9987   23.6624 H         1 <0>         0.0574
     40 H5         21.0212  -16.4756   24.6139 H         1 <0>         0.0629
     41 H6         19.8778  -12.1211   20.2037 H         1 <0>         0.0614
     42 H7         19.6225  -13.8441   20.6242 H         1 <0>         0.0593
     43 H8         17.5678  -14.4801   17.5630 H         1 <0>         0.0841
     44 H9         18.2351  -15.2677   19.0153 H         1 <0>         0.0679
     45 H10        18.2343  -12.5754   22.0438 H         1 <0>         0.0826
     46 H11        17.6111  -11.6046   20.6767 H         1 <0>         0.0383
     47 H12        17.9861  -15.1290   26.2708 H         1 <0>         0.0556
     48 H13        19.0060  -16.5345   26.1739 H         1 <0>         0.0415
     49 H14        15.9019  -14.7665   19.4116 H         1 <0>         0.0851
     50 H15        19.3259  -13.9710   24.5693 H         1 <0>         0.0639
     51 H16        18.5238  -12.3464   18.2438 H         1 <0>         0.0584
     52 H17        20.0217  -13.8023   26.9208 H         1 <0>         0.0401
     53 H18        21.0428  -15.2470   26.7273 H         1 <0>         0.0440
     54 H19        21.4300  -13.7575   25.8337 H         1 <0>         0.0459
     55 H20        20.8884  -12.9972   18.0634 H         1 <0>         0.0456
     56 H21        20.4621  -14.6744   18.4788 H         1 <0>         0.0366
     57 H22        19.8751  -13.9572   16.9594 H         1 <0>         0.0474
     58 H23        13.8391  -13.4990   23.1757 H         1 <0>         0.0800
     59 H24        12.7323  -14.8834   22.8275 H         1 <0>         0.0681
     60 H25        13.2193  -14.7739   20.5454 H         1 <0>         0.0740
     61 H26        14.1083  -13.2577   20.7357 H         1 <0>         0.0631
     62 H27        11.3352  -13.3672   21.3710 H         1 <0>         0.0970
     63 H28        12.4117  -12.0163   21.7218 H         1 <0>         0.0725
     64 H29        15.3898  -15.5064   20.5822 H         1 <0>         0.0839
     65 H30        16.8122  -16.4138   24.7535 H         1 <0>         0.4531
     66 H31        12.2839   -9.5585   23.6925 H         1 <0>         0.4798
     67 H32        12.7552  -10.7777   22.4783 H         1 <0>         0.4881
     68 H33        10.0052  -11.8064   25.3839 H         1 <0>         0.4801
     69 H34        10.8243  -10.2242   25.4768 H         1 <0>         0.4806
     70 H35        10.5693  -13.3126   23.7145 H         1 <0>         0.4689
     71 H36        15.1153  -15.3915   23.4499 H         1 <0>         0.4505
     72 H37        15.0745  -11.2885   19.4155 H         1 <0>         0.4443
@<TRIPOS>BOND
     1    1    2 ar
     2    1    3 ar
     3    2    4 ar
     4    3    6 ar
     5    4    5 ar
     6    4   10 1
     7    5    6 ar
     8    5   24 1
     9    6   35 1
    10    7   15 1
    11    7   30 2
    12    7   34 1
    13    8   23 1
    14    8   25 am
    15    8   31 2
    16    9   26 1
    17    9   27 1
    18    9   28 1
    19   10   16 1
    20   11   13 1
    21   11   17 1
    22   12   15 1
    23   12   17 1
    24   13   25 1
    25   14   16 1
    26   14   24 1
    27   15   25 1
    28   16   18 1
    29   17   19 1
    30   20   21 1
    31   20   22 1
    32   21   23 1
    33   22   28 1
    34   23   29 1
    35   29   35 1
    36   32   35 2
    37   33   35 2
    38    1   36 1
    39    2   37 1
    40    3   38 1
    41   10   39 1
    42   10   40 1
    43   11   41 1
    44   11   42 1
    45   12   43 1
    46   12   44 1
    47   13   45 1
    48   13   46 1
    49   14   47 1
    50   14   48 1
    51   15   49 1
    52   16   50 1
    53   17   51 1
    54   18   52 1
    55   18   53 1
    56   18   54 1
    57   19   55 1
    58   19   56 1
    59   19   57 1
    60   20   58 1
    61   20   59 1
    62   21   60 1
    63   21   61 1
    64   22   62 1
    65   22   63 1
    66   23   64 1
    67   24   65 1
    68   26   66 1
    69   26   67 1
    70   27   68 1
    71   27   69 1
    72   28   70 1
    73   29   71 1
    74   34   72 1
@<TRIPOS>MOLECULE
1dwc_ligand_1
   72    74     0     0     0
SMALL
USER_CHARGES

mmff94s_NoEstat = 68.64
@<TRIPOS>ATOM
      1 C1         -0.5687   -1.8484    7.8285 C.ar      1 <0>        -0.1945
      2 C2         -0.3952   -0.4679    7.9011 C.ar      1 <0>        -0.0294
      3 C3         -1.2191   -2.4094    6.7334 C.ar      1 <0>        -0.0143
      4 C4         -0.8690    0.3609    6.8741 C.ar      1 <0>        -0.1552
      5 C5         -1.5541   -0.1965    5.7761 C.ar      1 <0>         0.3076
      6 C6         -1.7052   -1.5894    5.7138 C.ar      1 <0>        -0.4908
      7 C7          3.5686   -3.4379    3.7704 C.2       1 <0>         0.5994
      8 C8          0.8654   -1.4427    3.2413 C.2       1 <0>         0.6462
      9 C9          1.7699   -7.1193    0.0630 C.cat     1 <0>         0.6305
     10 C10        -0.6787    1.8556    6.9729 C.3       1 <0>        -0.0319
     11 C11         3.4440   -0.0674    5.4719 C.3       1 <0>        -0.0918
     12 C12         3.1682   -2.4952    6.0163 C.3       1 <0>        -0.0841
     13 C13         2.9000   -0.3276    4.0730 C.3       1 <0>         0.0870
     14 C14        -2.0484    2.0439    4.8813 C.3       1 <0>         0.2023
     15 C15         2.5392   -2.7371    4.6417 C.3       1 <0>         0.0778
     16 C16        -0.7810    2.5267    5.5942 C.3       1 <0>        -0.0746
     17 C17         4.1435   -1.3104    6.0281 C.3       1 <0>        -0.0681
     18 C18        -0.7731    4.0470    5.7280 C.3       1 <0>        -0.0944
     19 C19         4.6673   -1.0527    7.4396 C.3       1 <0>        -0.0918
     20 C20        -0.5404   -4.8511    2.0458 C.3       1 <0>        -0.1192
     21 C21         0.3004   -3.5693    2.0376 C.3       1 <0>        -0.0916
     22 C22        -0.1768   -5.7847    0.8978 C.3       1 <0>         0.1883
     23 C23        -0.0078   -2.6730    3.2260 C.3       1 <0>         0.1952
     24 N1         -2.0339    0.5998    4.7435 N.pl3     1 <0>        -0.7670
     25 N2          2.0252   -1.5038    4.0223 N.am      1 <0>        -0.4509
     26 N3          3.1011   -7.5120    0.1550 N.pl3     1 <0>        -0.8477
     27 N4          0.9786   -7.6393   -0.9556 N.pl3     1 <0>        -0.8633
     28 N5          1.2122   -6.2141    0.9723 N.pl3     1 <0>        -0.7419
     29 N6         -1.3760   -2.1385    3.1042 N.pl3     1 <0>        -0.8860
     30 O1          4.3335   -2.8779    2.9993 O.2       1 <0>        -0.5199
     31 O2          0.5240   -0.4555    2.5844 O.2       1 <0>        -0.6131
     32 O3         -2.5906   -3.7967    4.6561 O.2       1 <0>        -0.6576
     33 O4         -3.7019   -1.6181    4.0705 O.2       1 <0>        -0.6482
     34 O5          3.5241   -4.7791    3.9616 O.3       1 <0>        -0.6303
     35 S1         -2.5018   -2.3799    4.3583 S.o2      1 <0>         1.5193
     36 H1         -0.1935   -2.4863    8.6241 H         1 <0>         0.1426
     37 H2          0.1168   -0.0386    8.7590 H         1 <0>         0.1398
     38 H3         -1.3546   -3.4839    6.6632 H         1 <0>         0.1599
     39 H4         -1.4443    2.2564    7.6493 H         1 <0>         0.0574
     40 H5          0.3029    2.0794    7.4083 H         1 <0>         0.0629
     41 H6          4.1435    0.7764    5.4419 H         1 <0>         0.0614
     42 H7          2.6191    0.2214    6.1357 H         1 <0>         0.0593
     43 H8          2.3618   -2.2928    6.7345 H         1 <0>         0.0841
     44 H9          3.6813   -3.3988    6.3690 H         1 <0>         0.0679
     45 H10         2.3679    0.5618    3.7197 H         1 <0>         0.0826
     46 H11         3.7232   -0.5081    3.3711 H         1 <0>         0.0383
     47 H12        -2.9433    2.3470    5.4389 H         1 <0>         0.0556
     48 H13        -2.1184    2.4959    3.8856 H         1 <0>         0.0415
     49 H14         1.7211   -3.4548    4.7590 H         1 <0>         0.0851
     50 H15         0.0923    2.2358    4.9947 H         1 <0>         0.0639
     51 H16         5.0063   -1.5479    5.3937 H         1 <0>         0.0584
     52 H17        -0.6000    4.5176    4.7555 H         1 <0>         0.0401
     53 H18        -1.7312    4.4037    6.1178 H         1 <0>         0.0440
     54 H19         0.0183    4.3685    6.4117 H         1 <0>         0.0459
     55 H20         4.2777   -1.8006    8.1367 H         1 <0>         0.0456
     56 H21         5.7602   -1.1000    7.4588 H         1 <0>         0.0366
     57 H22         4.3590   -0.0627    7.7891 H         1 <0>         0.0474
     58 H23        -0.4002   -5.3741    2.9994 H         1 <0>         0.0800
     59 H24        -1.6035   -4.5964    1.9658 H         1 <0>         0.0681
     60 H25         0.1357   -3.0322    1.0943 H         1 <0>         0.0740
     61 H26         1.3654   -3.8328    2.0643 H         1 <0>         0.0631
     62 H27        -0.3350   -5.3004   -0.0711 H         1 <0>         0.0970
     63 H28        -0.8024   -6.6822    0.9336 H         1 <0>         0.0725
     64 H29         0.1003   -3.1895    4.1787 H         1 <0>         0.0839
     65 H30        -2.5847    0.1629    4.0147 H         1 <0>         0.4531
     66 H31         3.7173   -7.1568    0.8813 H         1 <0>         0.4798
     67 H32         3.4989   -8.1703   -0.5108 H         1 <0>         0.4881
     68 H33         0.0016   -7.3736   -1.0521 H         1 <0>         0.4801
     69 H34         1.3562   -8.3001   -1.6305 H         1 <0>         0.4806
     70 H35         1.8180   -5.8498    1.7091 H         1 <0>         0.4689
     71 H36        -1.4850   -1.3266    2.4871 H         1 <0>         0.4505
     72 H37         4.1809   -5.2504    3.4059 H         1 <0>         0.4443
@<TRIPOS>BOND
     1    1    2 ar
     2    1    3 ar
     3    2    4 ar
     4    3    6 ar
     5    4    5 ar
     6    4   10 1
     7    5    6 ar
     8    5   24 1
     9    6   35 1
    10    7   15 1
    11    7   30 2
    12    7   34 1
    13    8   23 1
    14    8   25 am
    15    8   31 2
    16    9   26 1
    17    9   27 1
    18    9   28 1
    19   10   16 1
    20   11   13 1
    21   11   17 1
    22   12   15 1
    23   12   17 1
    24   13   25 1
    25   14   16 1
    26   14   24 1
    27   15   25 1
    28   16   18 1
    29   17   19 1
    30   20   21 1
    31   20   22 1
    32   21   23 1
    33   22   28 1
    34   23   29 1
    35   29   35 1
    36   32   35 2
    37   33   35 2
    38    1   36 1
    39    2   37 1
    40    3   38 1
    41   10   39 1
    42   10   40 1
    43   11   41 1
    44   11   42 1
    45   12   43 1
    46   12   44 1
    47   13   45 1
    48   13   46 1
    49   14   47 1
    50   14   48 1
    51   15   49 1
    52   16   50 1
    53   17   51 1
    54   18   52 1
    55   18   53 1
    56   18   54 1
    57   19   55 1
    58   19   56 1
    59   19   57 1
    60   20   58 1
    61   20   59 1
    62   21   60 1
    63   21   61 1
    64   22   62 1
    65   22   63 1
    66   23   64 1
    67   24   65 1
    68   26   66 1
    69   26   67 1
    70   27   68 1
    71   27   69 1
    72   28   70 1
    73   29   71 1
    74   34   72 1
@<TRIPOS>MOLECULE
1dwc_ligand_2
   72    74     0     0     0
SMALL
USER_CHARGES

mmff94s_NoEstat = 70.66
@<TRIPOS>ATOM
      1 C1         -0.5687   -1.8484    7.8285 C.ar      1 <0>        -0.1945
      2 C2         -0.3952   -0.4679    7.9011 C.ar      1 <0>        -0.0294
      3 C3         -1.2191   -2.4094    6.7334 C.ar      1 <0>        -0.0143
      4 C4         -0.8690    0.3609    6.8741 C.ar      1 <0>        -0.1552
      5 C5         -1.5541   -0.1965    5.7761 C.ar      1 <0>         0.3076
      6 C6         -1.7052   -1.5894    5.7138 C.ar      1 <0>        -0.4908
      7 C7          3.5686   -3.4379    3.7704 C.2       1 <0>         0.5994
      8 C8          0.8654   -1.4427    3.2413 C.2       1 <0>         0.6462
      9 C9          1.4604   -6.7192    4.6765 C.cat     1 <0>         0.6305
     10 C10        -0.6787    1.8556    6.9729 C.3       1 <0>        -0.0319
     11 C11         3.4440   -0.0674    5.4719 C.3       1 <0>        -0.0918
     12 C12         3.1682   -2.4952    6.0163 C.3       1 <0>        -0.0841
     13 C13         2.9000   -0.3276    4.0730 C.3       1 <0>         0.0870
     14 C14        -2.0484    2.0439    4.8813 C.3       1 <0>         0.2023
     15 C15         2.5392   -2.7371    4.6417 C.3       1 <0>         0.0778
     16 C16        -0.7810    2.5267    5.5942 C.3       1 <0>        -0.0746
     17 C17         4.1435   -1.3104    6.0281 C.3       1 <0>        -0.0681
     18 C18        -0.7731    4.0470    5.7280 C.3       1 <0>        -0.0944
     19 C19         4.6673   -1.0527    7.4396 C.3       1 <0>        -0.0918
     20 C20        -0.5404   -4.8511    2.0458 C.3       1 <0>        -0.1192
     21 C21         0.3004   -3.5693    2.0376 C.3       1 <0>        -0.0916
     22 C22        -0.3597   -5.6492    3.3311 C.3       1 <0>         0.1883
     23 C23        -0.0078   -2.6730    3.2260 C.3       1 <0>         0.1952
     24 N1         -2.0339    0.5998    4.7435 N.pl3     1 <0>        -0.7670
     25 N2          2.0252   -1.5038    4.0223 N.am      1 <0>        -0.4509
     26 N3          2.7946   -7.0727    4.8490 N.pl3     1 <0>        -0.8477
     27 N4          0.5364   -7.0602    5.6583 N.pl3     1 <0>        -0.8633
     28 N5          1.0303   -6.0293    3.5380 N.pl3     1 <0>        -0.7419
     29 N6         -1.3760   -2.1385    3.1042 N.pl3     1 <0>        -0.8860
     30 O1          4.1316   -4.4849    4.0536 O.2       1 <0>        -0.5199
     31 O2          0.5240   -0.4555    2.5844 O.2       1 <0>        -0.6131
     32 O3         -2.5906   -3.7967    4.6561 O.2       1 <0>        -0.6576
     33 O4         -3.7019   -1.6181    4.0705 O.2       1 <0>        -0.6482
     34 O5          3.7837   -2.7404    2.6283 O.3       1 <0>        -0.6303
     35 S1         -2.5018   -2.3799    4.3583 S.o2      1 <0>         1.5193
     36 H1         -0.1935   -2.4863    8.6241 H         1 <0>         0.1426
     37 H2          0.1168   -0.0386    8.7590 H         1 <0>         0.1398
     38 H3         -1.3546   -3.4839    6.6632 H         1 <0>         0.1599
     39 H4         -1.4443    2.2564    7.6493 H         1 <0>         0.0574
     40 H5          0.3029    2.0794    7.4083 H         1 <0>         0.0629
     41 H6          4.1435    0.7764    5.4419 H         1 <0>         0.0614
     42 H7          2.6191    0.2214    6.1357 H         1 <0>         0.0593
     43 H8          2.3618   -2.2928    6.7345 H         1 <0>         0.0841
     44 H9          3.6813   -3.3988    6.3690 H         1 <0>         0.0679
     45 H10         2.3679    0.5618    3.7197 H         1 <0>         0.0826
     46 H11         3.7232   -0.5081    3.3711 H         1 <0>         0.0383
     47 H12        -2.9433    2.3470    5.4389 H         1 <0>         0.0556
     48 H13        -2.1184    2.4959    3.8856 H         1 <0>         0.0415
     49 H14         1.7211   -3.4548    4.7590 H         1 <0>         0.0851
     50 H15         0.0923    2.2358    4.9947 H         1 <0>         0.0639
     51 H16         5.0063   -1.5479    5.3937 H         1 <0>         0.0584
     52 H17        -0.6000    4.5176    4.7555 H         1 <0>         0.0401
     53 H18        -1.7312    4.4037    6.1178 H         1 <0>         0.0440
     54 H19         0.0183    4.3685    6.4117 H         1 <0>         0.0459
     55 H20         4.2777   -1.8006    8.1367 H         1 <0>         0.0456
     56 H21         5.7602   -1.1000    7.4588 H         1 <0>         0.0366
     57 H22         4.3590   -0.0627    7.7891 H         1 <0>         0.0474
     58 H23        -1.5993   -4.5943    1.9218 H         1 <0>         0.0800
     59 H24        -0.2563   -5.4850    1.1980 H         1 <0>         0.0681
     60 H25         0.1357   -3.0322    1.0943 H         1 <0>         0.0740
     61 H26         1.3654   -3.8328    2.0643 H         1 <0>         0.0631
     62 H27        -0.9667   -6.5601    3.3198 H         1 <0>         0.0970
     63 H28        -0.6690   -5.0471    4.1914 H         1 <0>         0.0725
     64 H29         0.1003   -3.1895    4.1787 H         1 <0>         0.0839
     65 H30        -2.5847    0.1629    4.0147 H         1 <0>         0.4531
     66 H31         3.5044   -6.8463    4.1574 H         1 <0>         0.4798
     67 H32         3.0989   -7.5750    5.6798 H         1 <0>         0.4881
     68 H33        -0.4468   -6.8174    5.5641 H         1 <0>         0.4801
     69 H34         0.8200   -7.5607    6.4972 H         1 <0>         0.4806
     70 H35         1.7319   -5.7928    2.8348 H         1 <0>         0.4689
     71 H36        -1.4850   -1.3266    2.4871 H         1 <0>         0.4505
     72 H37         4.4476   -3.1762    2.0524 H         1 <0>         0.4443
@<TRIPOS>BOND
     1    1    2 ar
     2    1    3 ar
     3    2    4 ar
     4    3    6 ar
     5    4    5 ar
     6    4   10 1
     7    5    6 ar
     8    5   24 1
     9    6   35 1
    10    7   15 1
    11    7   30 2
    12    7   34 1
    13    8   23 1
    14    8   25 am
    15    8   31 2
    16    9   26 1
    17    9   27 1
    18    9   28 1
    19   10   16 1
    20   11   13 1
    21   11   17 1
    22   12   15 1
    23   12   17 1
    24   13   25 1
    25   14   16 1
    26   14   24 1
    27   15   25 1
    28   16   18 1
    29   17   19 1
    30   20   21 1
    31   20   22 1
    32   21   23 1
    33   22   28 1
    34   23   29 1
    35   29   35 1
    36   32   35 2
    37   33   35 2
    38    1   36 1
    39    2   37 1
    40    3   38 1
    41   10   39 1
    42   10   40 1
    43   11   41 1
    44   11   42 1
    45   12   43 1
    46   12   44 1
    47   13   45 1
    48   13   46 1
    49   14   47 1
    50   14   48 1
    51   15   49 1
    52   16   50 1
    53   17   51 1
    54   18   52 1
    55   18   53 1
    56   18   54 1
    57   19   55 1
    58   19   56 1
    59   19   57 1
    60   20   58 1
    61   20   59 1
    62   21   60 1
    63   21   61 1
    64   22   62 1
    65   22   63 1
    66   23   64 1
    67   24   65 1
    68   26   66 1
    69   26   67 1
    70   27   68 1
    71   27   69 1
    72   28   70 1
    73   29   71 1
    74   34   72 1
@<TRIPOS>MOLECULE
1dwc_ligand_3
   72    74     0     0     0
SMALL
USER_CHARGES

mmff94s_NoEstat = 70.81
@<TRIPOS>ATOM
      1 C1          2.5116   -3.9380   -0.5557 C.ar      1 <0>        -0.1945
      2 C2          3.7426   -3.3274   -0.3259 C.ar      1 <0>        -0.0294
      3 C3          1.7913   -4.4690    0.5101 C.ar      1 <0>        -0.0143
      4 C4          4.2632   -3.2477    0.9738 C.ar      1 <0>        -0.1552
      5 C5          3.5271   -3.7571    2.0614 C.ar      1 <0>         0.3076
      6 C6          2.2973   -4.3819    1.8081 C.ar      1 <0>        -0.4908
      7 C7         -1.4628    0.1636    1.3526 C.2       1 <0>         0.5994
      8 C8          0.8654   -1.4427    3.2413 C.2       1 <0>         0.6462
      9 C9         -4.4840   -2.7250    6.8178 C.cat     1 <0>         0.6305
     10 C10         5.5952   -2.5748    1.2036 C.3       1 <0>        -0.0319
     11 C11         2.1918    0.8805    0.7195 C.3       1 <0>        -0.0918
     12 C12         0.2821   -0.3679   -0.3105 C.3       1 <0>        -0.0841
     13 C13         1.6113    0.6116    2.1020 C.3       1 <0>         0.0870
     14 C14         5.1895   -2.8951    3.6625 C.3       1 <0>         0.2023
     15 C15        -0.2506   -0.7126    1.0828 C.3       1 <0>         0.0778
     16 C16         6.2338   -2.9744    2.5437 C.3       1 <0>        -0.0746
     17 C17         1.0859    0.9390   -0.3376 C.3       1 <0>        -0.0681
     18 C18         6.8920   -4.3571    2.4737 C.3       1 <0>        -0.0944
     19 C19         1.6740    1.1859   -1.7255 C.3       1 <0>        -0.0918
     20 C20        -2.2331   -3.6727    3.9110 C.3       1 <0>        -0.1192
     21 C21        -1.3133   -2.4479    3.9716 C.3       1 <0>        -0.0916
     22 C22        -3.5726   -3.4201    4.5920 C.3       1 <0>         0.1883
     23 C23        -0.0078   -2.6730    3.2260 C.3       1 <0>         0.1952
     24 N1          4.0208   -3.6991    3.3587 N.pl3     1 <0>        -0.7670
     25 N2          0.7744   -0.5925    2.1333 N.am      1 <0>        -0.4509
     26 N3         -4.2969   -2.3866    8.1540 N.pl3     1 <0>        -0.8477
     27 N4         -5.7720   -2.7293    6.2935 N.pl3     1 <0>        -0.8633
     28 N5         -3.4050   -3.0601    5.9927 N.pl3     1 <0>        -0.7419
     29 N6          0.7961   -3.6905    3.9267 N.pl3     1 <0>        -0.8860
     30 O1         -1.4385    1.2323    1.9447 O.2       1 <0>        -0.5199
     31 O2          1.6103   -1.2468    4.2054 O.2       1 <0>        -0.6131
     32 O3          0.1838   -5.7392    2.4909 O.2       1 <0>        -0.6576
     33 O4          2.2286   -5.8263    3.9523 O.2       1 <0>        -0.6482
     34 O5         -2.5854   -0.4037    0.8474 O.3       1 <0>        -0.6303
     35 S1          1.3247   -5.0804    3.0977 S.o2      1 <0>         1.5193
     36 H1          2.1160   -4.0026   -1.5657 H         1 <0>         0.1426
     37 H2          4.2999   -2.9178   -1.1651 H         1 <0>         0.1398
     38 H3          0.8339   -4.9524    0.3425 H         1 <0>         0.1599
     39 H4          6.2849   -2.8099    0.3837 H         1 <0>         0.0574
     40 H5          5.4270   -1.4903    1.1935 H         1 <0>         0.0629
     41 H6          2.7495    1.8244    0.7335 H         1 <0>         0.0614
     42 H7          2.9066    0.0878    0.4640 H         1 <0>         0.0593
     43 H8          0.9336   -1.1873   -0.6438 H         1 <0>         0.0841
     44 H9         -0.5414   -0.3095   -1.0336 H         1 <0>         0.0679
     45 H10         2.4269    0.5309    2.8282 H         1 <0>         0.0826
     46 H11         0.9807    1.4504    2.4206 H         1 <0>         0.0383
     47 H12         5.6214   -3.2300    4.6122 H         1 <0>         0.0556
     48 H13         4.8765   -1.8531    3.8022 H         1 <0>         0.0415
     49 H14        -0.6325   -1.7382    1.0612 H         1 <0>         0.0851
     50 H15         7.0369   -2.2610    2.7660 H         1 <0>         0.0639
     51 H16         0.4173    1.7778   -0.1080 H         1 <0>         0.0584
     52 H17         6.6629   -4.8441    1.5211 H         1 <0>         0.0401
     53 H18         7.9790   -4.2705    2.5637 H         1 <0>         0.0440
     54 H19         6.5291   -4.9970    3.2836 H         1 <0>         0.0459
     55 H20         1.1081    0.6390   -2.4855 H         1 <0>         0.0456
     56 H21         1.6425    2.2512   -1.9725 H         1 <0>         0.0366
     57 H22         2.7156    0.8534   -1.7662 H         1 <0>         0.0474
     58 H23        -2.4032   -3.9506    2.8639 H         1 <0>         0.0800
     59 H24        -1.7473   -4.5245    4.4007 H         1 <0>         0.0681
     60 H25        -1.1204   -2.1894    5.0211 H         1 <0>         0.0740
     61 H26        -1.8263   -1.5854    3.5275 H         1 <0>         0.0631
     62 H27        -4.2160   -4.3041    4.5394 H         1 <0>         0.0970
     63 H28        -4.0927   -2.5931    4.0984 H         1 <0>         0.0725
     64 H29        -0.1638   -2.9774    2.1921 H         1 <0>         0.0839
     65 H30         3.4221   -4.0102    4.1139 H         1 <0>         0.4531
     66 H31        -3.3744   -2.3719    8.5807 H         1 <0>         0.4798
     67 H32        -5.0872   -2.1448    8.7473 H         1 <0>         0.4881
     68 H33        -5.9446   -2.9718    5.3209 H         1 <0>         0.4801
     69 H34        -6.5756   -2.4889    6.8690 H         1 <0>         0.4806
     70 H35        -2.4715   -3.0479    6.4062 H         1 <0>         0.4689
     71 H36         1.3354   -3.3564    4.7325 H         1 <0>         0.4505
     72 H37        -3.3805    0.1466    1.0133 H         1 <0>         0.4443
@<TRIPOS>BOND
     1    1    2 ar
     2    1    3 ar
     3    2    4 ar
     4    3    6 ar
     5    4    5 ar
     6    4   10 1
     7    5    6 ar
     8    5   24 1
     9    6   35 1
    10    7   15 1
    11    7   30 2
    12    7   34 1
    13    8   23 1
    14    8   25 am
    15    8   31 2
    16    9   26 1
    17    9   27 1
    18    9   28 1
    19   10   16 1
    20   11   13 1
    21   11   17 1
    22   12   15 1
    23   12   17 1
    24   13   25 1
    25   14   16 1
    26   14   24 1
    27   15   25 1
    28   16   18 1
    29   17   19 1
    30   20   21 1
    31   20   22 1
    32   21   23 1
    33   22   28 1
    34   23   29 1
    35   29   35 1
    36   32   35 2
    37   33   35 2
    38    1   36 1
    39    2   37 1
    40    3   38 1
    41   10   39 1
    42   10   40 1
    43   11   41 1
    44   11   42 1
    45   12   43 1
    46   12   44 1
    47   13   45 1
    48   13   46 1
    49   14   47 1
    50   14   48 1
    51   15   49 1
    52   16   50 1
    53   17   51 1
    54   18   52 1
    55   18   53 1
    56   18   54 1
    57   19   55 1
    58   19   56 1
    59   19   57 1
    60   20   58 1
    61   20   59 1
    62   21   60 1
    63   21   61 1
    64   22   62 1
    65   22   63 1
    66   23   64 1
    67   24   65 1
    68   26   66 1
    69   26   67 1
    70   27   68 1
    71   27   69 1
    72   28   70 1
    73   29   71 1
    74   34   72 1
@<TRIPOS>MOLECULE
1dwc_ligand_4
   72    74     0     0     0
SMALL
USER_CHARGES

mmff94s_NoEstat = 71.03
@<TRIPOS>ATOM
      1 C1         -0.5687   -1.8484    7.8285 C.ar      1 <0>        -0.1945
      2 C2         -0.3952   -0.4679    7.9011 C.ar      1 <0>        -0.0294
      3 C3         -1.2191   -2.4094    6.7334 C.ar      1 <0>        -0.0143
      4 C4         -0.8690    0.3609    6.8741 C.ar      1 <0>        -0.1552
      5 C5         -1.5541   -0.1965    5.7761 C.ar      1 <0>         0.3076
      6 C6         -1.7052   -1.5894    5.7138 C.ar      1 <0>        -0.4908
      7 C7          3.5686   -3.4379    3.7704 C.2       1 <0>         0.5994
      8 C8          0.8654   -1.4427    3.2413 C.2       1 <0>         0.6462
      9 C9         -0.6326   -5.9229   -1.4626 C.cat     1 <0>         0.6305
     10 C10        -0.6787    1.8556    6.9729 C.3       1 <0>        -0.0319
     11 C11         3.4440   -0.0674    5.4719 C.3       1 <0>        -0.0918
     12 C12         3.1682   -2.4952    6.0163 C.3       1 <0>        -0.0841
     13 C13         2.9000   -0.3276    4.0730 C.3       1 <0>         0.0870
     14 C14        -2.0484    2.0439    4.8813 C.3       1 <0>         0.2023
     15 C15         2.5392   -2.7371    4.6417 C.3       1 <0>         0.0778
     16 C16        -0.7810    2.5267    5.5942 C.3       1 <0>        -0.0746
     17 C17         4.1435   -1.3104    6.0281 C.3       1 <0>        -0.0681
     18 C18        -0.7731    4.0470    5.7280 C.3       1 <0>        -0.0944
     19 C19         4.6673   -1.0527    7.4396 C.3       1 <0>        -0.0918
     20 C20         0.0249   -2.8727    0.7002 C.3       1 <0>        -0.1192
     21 C21         0.3004   -3.5693    2.0376 C.3       1 <0>        -0.0916
     22 C22         0.2602   -3.7963   -0.4886 C.3       1 <0>         0.1883
     23 C23        -0.0078   -2.6730    3.2260 C.3       1 <0>         0.1952
     24 N1         -2.0339    0.5998    4.7435 N.pl3     1 <0>        -0.7670
     25 N2          2.0252   -1.5038    4.0223 N.am      1 <0>        -0.4509
     26 N3         -1.4804   -7.0239   -1.4014 N.pl3     1 <0>        -0.8477
     27 N4          0.2178   -5.7819   -2.5539 N.pl3     1 <0>        -0.8633
     28 N5         -0.6182   -4.9567   -0.4508 N.pl3     1 <0>        -0.7419
     29 N6         -1.3760   -2.1385    3.1042 N.pl3     1 <0>        -0.8860
     30 O1          4.3335   -2.8779    2.9993 O.2       1 <0>        -0.5199
     31 O2          0.5240   -0.4555    2.5844 O.2       1 <0>        -0.6131
     32 O3         -2.5906   -3.7967    4.6561 O.2       1 <0>        -0.6576
     33 O4         -3.7019   -1.6181    4.0705 O.2       1 <0>        -0.6482
     34 O5          3.5241   -4.7791    3.9616 O.3       1 <0>        -0.6303
     35 S1         -2.5018   -2.3799    4.3583 S.o2      1 <0>         1.5193
     36 H1         -0.1935   -2.4863    8.6241 H         1 <0>         0.1426
     37 H2          0.1168   -0.0386    8.7590 H         1 <0>         0.1398
     38 H3         -1.3546   -3.4839    6.6632 H         1 <0>         0.1599
     39 H4         -1.4443    2.2564    7.6493 H         1 <0>         0.0574
     40 H5          0.3029    2.0794    7.4083 H         1 <0>         0.0629
     41 H6          4.1435    0.7764    5.4419 H         1 <0>         0.0614
     42 H7          2.6191    0.2214    6.1357 H         1 <0>         0.0593
     43 H8          2.3618   -2.2928    6.7345 H         1 <0>         0.0841
     44 H9          3.6813   -3.3988    6.3690 H         1 <0>         0.0679
     45 H10         2.3679    0.5618    3.7197 H         1 <0>         0.0826
     46 H11         3.7232   -0.5081    3.3711 H         1 <0>         0.0383
     47 H12        -2.9433    2.3470    5.4389 H         1 <0>         0.0556
     48 H13        -2.1184    2.4959    3.8856 H         1 <0>         0.0415
     49 H14         1.7211   -3.4548    4.7590 H         1 <0>         0.0851
     50 H15         0.0923    2.2358    4.9947 H         1 <0>         0.0639
     51 H16         5.0063   -1.5479    5.3937 H         1 <0>         0.0584
     52 H17        -0.6000    4.5176    4.7555 H         1 <0>         0.0401
     53 H18        -1.7312    4.4037    6.1178 H         1 <0>         0.0440
     54 H19         0.0183    4.3685    6.4117 H         1 <0>         0.0459
     55 H20         4.2777   -1.8006    8.1367 H         1 <0>         0.0456
     56 H21         5.7602   -1.1000    7.4588 H         1 <0>         0.0366
     57 H22         4.3590   -0.0627    7.7891 H         1 <0>         0.0474
     58 H23        -1.0105   -2.5120    0.6824 H         1 <0>         0.0800
     59 H24         0.6776   -1.9980    0.5976 H         1 <0>         0.0681
     60 H25         1.3460   -3.9033    2.0652 H         1 <0>         0.0740
     61 H26        -0.3175   -4.4733    2.1109 H         1 <0>         0.0631
     62 H27         1.2957   -4.1503   -0.5157 H         1 <0>         0.0970
     63 H28         0.0608   -3.2615   -1.4226 H         1 <0>         0.0725
     64 H29         0.1003   -3.1895    4.1787 H         1 <0>         0.0839
     65 H30        -2.5847    0.1629    4.0147 H         1 <0>         0.4531
     66 H31        -2.1173   -7.1693   -0.6226 H         1 <0>         0.4798
     67 H32        -1.4841   -7.7223   -2.1412 H         1 <0>         0.4881
     68 H33         0.8505   -4.9892   -2.6303 H         1 <0>         0.4801
     69 H34         0.2286   -6.4677   -3.3050 H         1 <0>         0.4806
     70 H35        -1.2539   -5.0876    0.3375 H         1 <0>         0.4689
     71 H36        -1.4850   -1.3266    2.4871 H         1 <0>         0.4505
     72 H37         4.1809   -5.2504    3.4059 H         1 <0>         0.4443
@<TRIPOS>BOND
     1    1    2 ar
     2    1    3 ar
     3    2    4 ar
     4    3    6 ar
     5    4    5 ar
     6    4   10 1
     7    5    6 ar
     8    5   24 1
     9    6   35 1
    10    7   15 1
    11    7   30 2
    12    7   34 1
    13    8   23 1
    14    8   25 am
    15    8   31 2
    16    9   26 1
    17    9   27 1
    18    9   28 1
    19   10   16 1
    20   11   13 1
    21   11   17 1
    22   12   15 1
    23   12   17 1
    24   13   25 1
    25   14   16 1
    26   14   24 1
    27   15   25 1
    28   16   18 1
    29   17   19 1
    30   20   21 1
    31   20   22 1
    32   21   23 1
    33   22   28 1
    34   23   29 1
    35   29   35 1
    36   32   35 2
    37   33   35 2
    38    1   36 1
    39    2   37 1
    40    3   38 1
    41   10   39 1
    42   10   40 1
    43   11   41 1
    44   11   42 1
    45   12   43 1
    46   12   44 1
    47   13   45 1
    48   13   46 1
    49   14   47 1
    50   14   48 1
    51   15   49 1
    52   16   50 1
    53   17   51 1
    54   18   52 1
    55   18   53 1
    56   18   54 1
    57   19   55 1
    58   19   56 1
    59   19   57 1
    60   20   58 1
    61   20   59 1
    62   21   60 1
    63   21   61 1
    64   22   62 1
    65   22   63 1
    66   23   64 1
    67   24   65 1
    68   26   66 1
    69   26   67 1
    70   27   68 1
    71   27   69 1
    72   28   70 1
    73   29   71 1
    74   34   72 1
@<TRIPOS>MOLECULE
1dwc_ligand_5
   72    74     0     0     0
SMALL
USER_CHARGES

mmff94s_NoEstat = 71.07
@<TRIPOS>ATOM
      1 C1         -0.5687   -1.8484    7.8285 C.ar      1 <0>        -0.1945
      2 C2         -0.3952   -0.4679    7.9011 C.ar      1 <0>        -0.0294
      3 C3         -1.2191   -2.4094    6.7334 C.ar      1 <0>        -0.0143
      4 C4         -0.8690    0.3609    6.8741 C.ar      1 <0>        -0.1552
      5 C5         -1.5541   -0.1965    5.7761 C.ar      1 <0>         0.3076
      6 C6         -1.7052   -1.5894    5.7138 C.ar      1 <0>        -0.4908
      7 C7          3.5686   -3.4379    3.7704 C.2       1 <0>         0.5994
      8 C8          0.8654   -1.4427    3.2413 C.2       1 <0>         0.6462
      9 C9         -1.1012   -7.8073    4.3609 C.cat     1 <0>         0.6305
     10 C10        -0.6787    1.8556    6.9729 C.3       1 <0>        -0.0319
     11 C11         3.4440   -0.0674    5.4719 C.3       1 <0>        -0.0918
     12 C12         3.1682   -2.4952    6.0163 C.3       1 <0>        -0.0841
     13 C13         2.9000   -0.3276    4.0730 C.3       1 <0>         0.0870
     14 C14        -2.0484    2.0439    4.8813 C.3       1 <0>         0.2023
     15 C15         2.5392   -2.7371    4.6417 C.3       1 <0>         0.0778
     16 C16        -0.7810    2.5267    5.5942 C.3       1 <0>        -0.0746
     17 C17         4.1435   -1.3104    6.0281 C.3       1 <0>        -0.0681
     18 C18        -0.7731    4.0470    5.7280 C.3       1 <0>        -0.0944
     19 C19         4.6673   -1.0527    7.4396 C.3       1 <0>        -0.0918
     20 C20        -0.5404   -4.8511    2.0458 C.3       1 <0>        -0.1192
     21 C21         0.3004   -3.5693    2.0376 C.3       1 <0>        -0.0916
     22 C22        -0.3597   -5.6492    3.3311 C.3       1 <0>         0.1883
     23 C23        -0.0078   -2.6730    3.2260 C.3       1 <0>         0.1952
     24 N1         -2.0339    0.5998    4.7435 N.pl3     1 <0>        -0.7670
     25 N2          2.0252   -1.5038    4.0223 N.am      1 <0>        -0.4509
     26 N3         -1.8613   -8.9717    4.3243 N.pl3     1 <0>        -0.8477
     27 N4         -0.2834   -7.5659    5.4595 N.pl3     1 <0>        -0.8633
     28 N5         -1.1428   -6.8764    3.3174 N.pl3     1 <0>        -0.7419
     29 N6         -1.3760   -2.1385    3.1042 N.pl3     1 <0>        -0.8860
     30 O1          4.3335   -2.8779    2.9993 O.2       1 <0>        -0.5199
     31 O2          0.5240   -0.4555    2.5844 O.2       1 <0>        -0.6131
     32 O3         -2.5906   -3.7967    4.6561 O.2       1 <0>        -0.6576
     33 O4         -3.7019   -1.6181    4.0705 O.2       1 <0>        -0.6482
     34 O5          3.5241   -4.7791    3.9616 O.3       1 <0>        -0.6303
     35 S1         -2.5018   -2.3799    4.3583 S.o2      1 <0>         1.5193
     36 H1         -0.1935   -2.4863    8.6241 H         1 <0>         0.1426
     37 H2          0.1168   -0.0386    8.7590 H         1 <0>         0.1398
     38 H3         -1.3546   -3.4839    6.6632 H         1 <0>         0.1599
     39 H4         -1.4443    2.2564    7.6493 H         1 <0>         0.0574
     40 H5          0.3029    2.0794    7.4083 H         1 <0>         0.0629
     41 H6          4.1435    0.7764    5.4419 H         1 <0>         0.0614
     42 H7          2.6191    0.2214    6.1357 H         1 <0>         0.0593
     43 H8          2.3618   -2.2928    6.7345 H         1 <0>         0.0841
     44 H9          3.6813   -3.3988    6.3690 H         1 <0>         0.0679
     45 H10         2.3679    0.5618    3.7197 H         1 <0>         0.0826
     46 H11         3.7232   -0.5081    3.3711 H         1 <0>         0.0383
     47 H12        -2.9433    2.3470    5.4389 H         1 <0>         0.0556
     48 H13        -2.1184    2.4959    3.8856 H         1 <0>         0.0415
     49 H14         1.7211   -3.4548    4.7590 H         1 <0>         0.0851
     50 H15         0.0923    2.2358    4.9947 H         1 <0>         0.0639
     51 H16         5.0063   -1.5479    5.3937 H         1 <0>         0.0584
     52 H17        -0.6000    4.5176    4.7555 H         1 <0>         0.0401
     53 H18        -1.7312    4.4037    6.1178 H         1 <0>         0.0440
     54 H19         0.0183    4.3685    6.4117 H         1 <0>         0.0459
     55 H20         4.2777   -1.8006    8.1367 H         1 <0>         0.0456
     56 H21         5.7602   -1.1000    7.4588 H         1 <0>         0.0366
     57 H22         4.3590   -0.0627    7.7891 H         1 <0>         0.0474
     58 H23        -1.5993   -4.5943    1.9218 H         1 <0>         0.0800
     59 H24        -0.2563   -5.4850    1.1980 H         1 <0>         0.0681
     60 H25         0.1357   -3.0322    1.0943 H         1 <0>         0.0740
     61 H26         1.3654   -3.8328    2.0643 H         1 <0>         0.0631
     62 H27        -0.6565   -5.0623    4.2062 H         1 <0>         0.0970
     63 H28         0.6914   -5.9295    3.4522 H         1 <0>         0.0725
     64 H29         0.1003   -3.1895    4.1787 H         1 <0>         0.0839
     65 H30        -2.5847    0.1629    4.0147 H         1 <0>         0.4531
     66 H31        -2.4745   -9.1890    3.5432 H         1 <0>         0.4798
     67 H32        -1.8257   -9.6431    5.0878 H         1 <0>         0.4881
     68 H33         0.2854   -6.7248    5.5187 H         1 <0>         0.4801
     69 H34        -0.2317   -8.2251    6.2325 H         1 <0>         0.4806
     70 H35        -1.7526   -7.0814    2.5245 H         1 <0>         0.4689
     71 H36        -1.4850   -1.3266    2.4871 H         1 <0>         0.4505
     72 H37         4.1809   -5.2504    3.4059 H         1 <0>         0.4443
@<TRIPOS>BOND
     1    1    2 ar
     2    1    3 ar
     3    2    4 ar
     4    3    6 ar
     5    4    5 ar
     6    4   10 1
     7    5    6 ar
     8    5   24 1
     9    6   35 1
    10    7   15 1
    11    7   30 2
    12    7   34 1
    13    8   23 1
    14    8   25 am
    15    8   31 2
    16    9   26 1
    17    9   27 1
    18    9   28 1
    19   10   16 1
    20   11   13 1
    21   11   17 1
    22   12   15 1
    23   12   17 1
    24   13   25 1
    25   14   16 1
    26   14   24 1
    27   15   25 1
    28   16   18 1
    29   17   19 1
    30   20   21 1
    31   20   22 1
    32   21   23 1
    33   22   28 1
    34   23   29 1
    35   29   35 1
    36   32   35 2
    37   33   35 2
    38    1   36 1
    39    2   37 1
    40    3   38 1
    41   10   39 1
    42   10   40 1
    43   11   41 1
    44   11   42 1
    45   12   43 1
    46   12   44 1
    47   13   45 1
    48   13   46 1
    49   14   47 1
    50   14   48 1
    51   15   49 1
    52   16   50 1
    53   17   51 1
    54   18   52 1
    55   18   53 1
    56   18   54 1
    57   19   55 1
    58   19   56 1
    59   19   57 1
    60   20   58 1
    61   20   59 1
    62   21   60 1
    63   21   61 1
    64   22   62 1
    65   22   63 1
    66   23   64 1
    67   24   65 1
    68   26   66 1
    69   26   67 1
    70   27   68 1
    71   27   69 1
    72   28   70 1
    73   29   71 1
    74   34   72 1
@<TRIPOS>MOLECULE
1dwc_ligand_6
   72    74     0     0     0
SMALL
USER_CHARGES

mmff94s_NoEstat = 71.79
@<TRIPOS>ATOM
      1 C1         -3.2355   -5.0148    6.4799 C.ar      1 <0>        -0.1945
      2 C2         -4.2884   -5.5400    5.7336 C.ar      1 <0>        -0.0294
      3 C3         -2.6234   -3.8310    6.0789 C.ar      1 <0>        -0.0143
      4 C4         -4.7385   -4.8800    4.5812 C.ar      1 <0>        -0.1552
      5 C5         -4.1052   -3.6965    4.1523 C.ar      1 <0>         0.3076
      6 C6         -3.0575   -3.1757    4.9254 C.ar      1 <0>        -0.4908
      7 C7          3.5686   -3.4379    3.7704 C.2       1 <0>         0.5994
      8 C8          0.8654   -1.4427    3.2413 C.2       1 <0>         0.6462
      9 C9          1.7699   -7.1193    0.0630 C.cat     1 <0>         0.6305
     10 C10        -5.8759   -5.4673    3.7804 C.3       1 <0>        -0.0319
     11 C11         3.4440   -0.0674    5.4719 C.3       1 <0>        -0.0918
     12 C12         3.1682   -2.4952    6.0163 C.3       1 <0>        -0.0841
     13 C13         2.9000   -0.3276    4.0730 C.3       1 <0>         0.0870
     14 C14        -5.4818   -3.6385    2.1112 C.3       1 <0>         0.2023
     15 C15         2.5392   -2.7371    4.6417 C.3       1 <0>         0.0778
     16 C16        -6.5499   -4.4038    2.8993 C.3       1 <0>        -0.0746
     17 C17         4.1435   -1.3104    6.0281 C.3       1 <0>        -0.0681
     18 C18        -7.5704   -5.0425    1.9612 C.3       1 <0>        -0.0944
     19 C19         4.6673   -1.0527    7.4396 C.3       1 <0>        -0.0918
     20 C20        -0.5404   -4.8511    2.0458 C.3       1 <0>        -0.1192
     21 C21         0.3004   -3.5693    2.0376 C.3       1 <0>        -0.0916
     22 C22        -0.1768   -5.7847    0.8978 C.3       1 <0>         0.1883
     23 C23        -0.0078   -2.6730    3.2260 C.3       1 <0>         0.1952
     24 N1         -4.5300   -3.0206    3.0151 N.pl3     1 <0>        -0.7670
     25 N2          2.0252   -1.5038    4.0223 N.am      1 <0>        -0.4509
     26 N3          3.1011   -7.5120    0.1550 N.pl3     1 <0>        -0.8477
     27 N4          0.9786   -7.6393   -0.9556 N.pl3     1 <0>        -0.8633
     28 N5          1.2122   -6.2141    0.9723 N.pl3     1 <0>        -0.7419
     29 N6         -1.3760   -2.1385    3.1042 N.pl3     1 <0>        -0.8860
     30 O1          4.3335   -2.8779    2.9993 O.2       1 <0>        -0.5199
     31 O2          0.5240   -0.4555    2.5844 O.2       1 <0>        -0.6131
     32 O3         -3.2514   -0.7039    4.1330 O.2       1 <0>        -0.6576
     33 O4         -1.2997   -1.3890    5.5632 O.2       1 <0>        -0.6482
     34 O5          3.5241   -4.7791    3.9616 O.3       1 <0>        -0.6303
     35 S1         -2.2397   -1.6774    4.4970 S.o2      1 <0>         1.5193
     36 H1         -2.8954   -5.5270    7.3757 H         1 <0>         0.1426
     37 H2         -4.7626   -6.4639    6.0561 H         1 <0>         0.1398
     38 H3         -1.8065   -3.4094    6.6557 H         1 <0>         0.1599
     39 H4         -5.4767   -6.2793    3.1592 H         1 <0>         0.0574
     40 H5         -6.6243   -5.8997    4.4558 H         1 <0>         0.0629
     41 H6          4.1435    0.7764    5.4419 H         1 <0>         0.0614
     42 H7          2.6191    0.2214    6.1357 H         1 <0>         0.0593
     43 H8          2.3618   -2.2928    6.7345 H         1 <0>         0.0841
     44 H9          3.6813   -3.3988    6.3690 H         1 <0>         0.0679
     45 H10         2.3679    0.5618    3.7197 H         1 <0>         0.0826
     46 H11         3.7232   -0.5081    3.3711 H         1 <0>         0.0383
     47 H12        -4.9499   -4.3126    1.4283 H         1 <0>         0.0556
     48 H13        -5.9488   -2.8592    1.4988 H         1 <0>         0.0415
     49 H14         1.7211   -3.4548    4.7590 H         1 <0>         0.0851
     50 H15        -7.0837   -3.6956    3.5475 H         1 <0>         0.0639
     51 H16         5.0063   -1.5479    5.3937 H         1 <0>         0.0584
     52 H17        -8.2149   -4.2783    1.5167 H         1 <0>         0.0401
     53 H18        -7.0658   -5.5804    1.1530 H         1 <0>         0.0440
     54 H19        -8.2016   -5.7514    2.5054 H         1 <0>         0.0459
     55 H20         4.2777   -1.8006    8.1367 H         1 <0>         0.0456
     56 H21         5.7602   -1.1000    7.4588 H         1 <0>         0.0366
     57 H22         4.3590   -0.0627    7.7891 H         1 <0>         0.0474
     58 H23        -0.4002   -5.3741    2.9994 H         1 <0>         0.0800
     59 H24        -1.6035   -4.5964    1.9658 H         1 <0>         0.0681
     60 H25         0.1357   -3.0322    1.0943 H         1 <0>         0.0740
     61 H26         1.3654   -3.8328    2.0643 H         1 <0>         0.0631
     62 H27        -0.3350   -5.3004   -0.0711 H         1 <0>         0.0970
     63 H28        -0.8024   -6.6822    0.9336 H         1 <0>         0.0725
     64 H29         0.1003   -3.1895    4.1787 H         1 <0>         0.0839
     65 H30        -3.9968   -2.2176    2.7049 H         1 <0>         0.4531
     66 H31         3.7173   -7.1568    0.8813 H         1 <0>         0.4798
     67 H32         3.4989   -8.1703   -0.5108 H         1 <0>         0.4881
     68 H33         0.0016   -7.3736   -1.0521 H         1 <0>         0.4801
     69 H34         1.3562   -8.3001   -1.6305 H         1 <0>         0.4806
     70 H35         1.8180   -5.8498    1.7091 H         1 <0>         0.4689
     71 H36        -1.6042   -1.6955    2.2078 H         1 <0>         0.4505
     72 H37         4.1809   -5.2504    3.4059 H         1 <0>         0.4443
@<TRIPOS>BOND
     1    1    2 ar
     2    1    3 ar
     3    2    4 ar
     4    3    6 ar
     5    4    5 ar
     6    4   10 1
     7    5    6 ar
     8    5   24 1
     9    6   35 1
    10    7   15 1
    11    7   30 2
    12    7   34 1
    13    8   23 1
    14    8   25 am
    15    8   31 2
    16    9   26 1
    17    9   27 1
    18    9   28 1
    19   10   16 1
    20   11   13 1
    21   11   17 1
    22   12   15 1
    23   12   17 1
    24   13   25 1
    25   14   16 1
    26   14   24 1
    27   15   25 1
    28   16   18 1
    29   17   19 1
    30   20   21 1
    31   20   22 1
    32   21   23 1
    33   22   28 1
    34   23   29 1
    35   29   35 1
    36   32   35 2
    37   33   35 2
    38    1   36 1
    39    2   37 1
    40    3   38 1
    41   10   39 1
    42   10   40 1
    43   11   41 1
    44   11   42 1
    45   12   43 1
    46   12   44 1
    47   13   45 1
    48   13   46 1
    49   14   47 1
    50   14   48 1
    51   15   49 1
    52   16   50 1
    53   17   51 1
    54   18   52 1
    55   18   53 1
    56   18   54 1
    57   19   55 1
    58   19   56 1
    59   19   57 1
    60   20   58 1
    61   20   59 1
    62   21   60 1
    63   21   61 1
    64   22   62 1
    65   22   63 1
    66   23   64 1
    67   24   65 1
    68   26   66 1
    69   26   67 1
    70   27   68 1
    71   27   69 1
    72   28   70 1
    73   29   71 1
    74   34   72 1
@<TRIPOS>MOLECULE
1dwc_ligand_7
   72    74     0     0     0
SMALL
USER_CHARGES

mmff94s_NoEstat = 71.81
@<TRIPOS>ATOM
      1 C1         -3.2355   -5.0148    6.4799 C.ar      1 <0>        -0.1945
      2 C2         -4.2884   -5.5400    5.7336 C.ar      1 <0>        -0.0294
      3 C3         -2.6234   -3.8310    6.0789 C.ar      1 <0>        -0.0143
      4 C4         -4.7385   -4.8800    4.5812 C.ar      1 <0>        -0.1552
      5 C5         -4.1052   -3.6965    4.1523 C.ar      1 <0>         0.3076
      6 C6         -3.0575   -3.1757    4.9254 C.ar      1 <0>        -0.4908
      7 C7          3.5686   -3.4379    3.7704 C.2       1 <0>         0.5994
      8 C8          0.8654   -1.4427    3.2413 C.2       1 <0>         0.6462
      9 C9         -1.1012   -7.8073    4.3609 C.cat     1 <0>         0.6305
     10 C10        -5.8759   -5.4673    3.7804 C.3       1 <0>        -0.0319
     11 C11         3.4440   -0.0674    5.4719 C.3       1 <0>        -0.0918
     12 C12         3.1682   -2.4952    6.0163 C.3       1 <0>        -0.0841
     13 C13         2.9000   -0.3276    4.0730 C.3       1 <0>         0.0870
     14 C14        -5.4818   -3.6385    2.1112 C.3       1 <0>         0.2023
     15 C15         2.5392   -2.7371    4.6417 C.3       1 <0>         0.0778
     16 C16        -6.5499   -4.4038    2.8993 C.3       1 <0>        -0.0746
     17 C17         4.1435   -1.3104    6.0281 C.3       1 <0>        -0.0681
     18 C18        -7.5704   -5.0425    1.9612 C.3       1 <0>        -0.0944
     19 C19         4.6673   -1.0527    7.4396 C.3       1 <0>        -0.0918
     20 C20        -0.5404   -4.8511    2.0458 C.3       1 <0>        -0.1192
     21 C21         0.3004   -3.5693    2.0376 C.3       1 <0>        -0.0916
     22 C22        -0.3597   -5.6492    3.3311 C.3       1 <0>         0.1883
     23 C23        -0.0078   -2.6730    3.2260 C.3       1 <0>         0.1952
     24 N1         -4.5300   -3.0206    3.0151 N.pl3     1 <0>        -0.7670
     25 N2          2.0252   -1.5038    4.0223 N.am      1 <0>        -0.4509
     26 N3         -1.8613   -8.9717    4.3243 N.pl3     1 <0>        -0.8477
     27 N4         -0.2834   -7.5659    5.4595 N.pl3     1 <0>        -0.8633
     28 N5         -1.1428   -6.8764    3.3174 N.pl3     1 <0>        -0.7419
     29 N6         -1.3760   -2.1385    3.1042 N.pl3     1 <0>        -0.8860
     30 O1          4.3335   -2.8779    2.9993 O.2       1 <0>        -0.5199
     31 O2          0.5240   -0.4555    2.5844 O.2       1 <0>        -0.6131
     32 O3         -3.2514   -0.7039    4.1330 O.2       1 <0>        -0.6576
     33 O4         -1.2997   -1.3890    5.5632 O.2       1 <0>        -0.6482
     34 O5          3.5241   -4.7791    3.9616 O.3       1 <0>        -0.6303
     35 S1         -2.2397   -1.6774    4.4970 S.o2      1 <0>         1.5193
     36 H1         -2.8954   -5.5270    7.3757 H         1 <0>         0.1426
     37 H2         -4.7626   -6.4639    6.0561 H         1 <0>         0.1398
     38 H3         -1.8065   -3.4094    6.6557 H         1 <0>         0.1599
     39 H4         -5.4767   -6.2793    3.1592 H         1 <0>         0.0574
     40 H5         -6.6243   -5.8997    4.4558 H         1 <0>         0.0629
     41 H6          4.1435    0.7764    5.4419 H         1 <0>         0.0614
     42 H7          2.6191    0.2214    6.1357 H         1 <0>         0.0593
     43 H8          2.3618   -2.2928    6.7345 H         1 <0>         0.0841
     44 H9          3.6813   -3.3988    6.3690 H         1 <0>         0.0679
     45 H10         2.3679    0.5618    3.7197 H         1 <0>         0.0826
     46 H11         3.7232   -0.5081    3.3711 H         1 <0>         0.0383
     47 H12        -4.9499   -4.3126    1.4283 H         1 <0>         0.0556
     48 H13        -5.9488   -2.8592    1.4988 H         1 <0>         0.0415
     49 H14         1.7211   -3.4548    4.7590 H         1 <0>         0.0851
     50 H15        -7.0837   -3.6956    3.5475 H         1 <0>         0.0639
     51 H16         5.0063   -1.5479    5.3937 H         1 <0>         0.0584
     52 H17        -8.2149   -4.2783    1.5167 H         1 <0>         0.0401
     53 H18        -7.0658   -5.5804    1.1530 H         1 <0>         0.0440
     54 H19        -8.2016   -5.7514    2.5054 H         1 <0>         0.0459
     55 H20         4.2777   -1.8006    8.1367 H         1 <0>         0.0456
     56 H21         5.7602   -1.1000    7.4588 H         1 <0>         0.0366
     57 H22         4.3590   -0.0627    7.7891 H         1 <0>         0.0474
     58 H23        -1.5993   -4.5943    1.9218 H         1 <0>         0.0800
     59 H24        -0.2563   -5.4850    1.1980 H         1 <0>         0.0681
     60 H25         0.1357   -3.0322    1.0943 H         1 <0>         0.0740
     61 H26         1.3654   -3.8328    2.0643 H         1 <0>         0.0631
     62 H27        -0.6565   -5.0623    4.2062 H         1 <0>         0.0970
     63 H28         0.6914   -5.9295    3.4522 H         1 <0>         0.0725
     64 H29         0.1003   -3.1895    4.1787 H         1 <0>         0.0839
     65 H30        -3.9968   -2.2176    2.7049 H         1 <0>         0.4531
     66 H31        -2.4745   -9.1890    3.5432 H         1 <0>         0.4798
     67 H32        -1.8257   -9.6431    5.0878 H         1 <0>         0.4881
     68 H33         0.2854   -6.7248    5.5187 H         1 <0>         0.4801
     69 H34        -0.2317   -8.2251    6.2325 H         1 <0>         0.4806
     70 H35        -1.7526   -7.0814    2.5245 H         1 <0>         0.4689
     71 H36        -1.6042   -1.6955    2.2078 H         1 <0>         0.4505
     72 H37         4.1809   -5.2504    3.4059 H         1 <0>         0.4443
@<TRIPOS>BOND
     1    1    2 ar
     2    1    3 ar
     3    2    4 ar
     4    3    6 ar
     5    4    5 ar
     6    4   10 1
     7    5    6 ar
     8    5   24 1
     9    6   35 1
    10    7   15 1
    11    7   30 2
    12    7   34 1
    13    8   23 1
    14    8   25 am
    15    8   31 2
    16    9   26 1
    17    9   27 1
    18    9   28 1
    19   10   16 1
    20   11   13 1
    21   11   17 1
    22   12   15 1
    23   12   17 1
    24   13   25 1
    25   14   16 1
    26   14   24 1
    27   15   25 1
    28   16   18 1
    29   17   19 1
    30   20   21 1
    31   20   22 1
    32   21   23 1
    33   22   28 1
    34   23   29 1
    35   29   35 1
    36   32   35 2
    37   33   35 2
    38    1   36 1
    39    2   37 1
    40    3   38 1
    41   10   39 1
    42   10   40 1
    43   11   41 1
    44   11   42 1
    45   12   43 1
    46   12   44 1
    47   13   45 1
    48   13   46 1
    49   14   47 1
    50   14   48 1
    51   15   49 1
    52   16   50 1
    53   17   51 1
    54   18   52 1
    55   18   53 1
    56   18   54 1
    57   19   55 1
    58   19   56 1
    59   19   57 1
    60   20   58 1
    61   20   59 1
    62   21   60 1
    63   21   61 1
    64   22   62 1
    65   22   63 1
    66   23   64 1
    67   24   65 1
    68   26   66 1
    69   26   67 1
    70   27   68 1
    71   27   69 1
    72   28   70 1
    73   29   71 1
    74   34   72 1
@<TRIPOS>MOLECULE
1dwc_ligand_8
   72    74     0     0     0
SMALL
USER_CHARGES

mmff94s_NoEstat = 71.97
@<TRIPOS>ATOM
      1 C1         -3.2355   -5.0148    6.4799 C.ar      1 <0>        -0.1945
      2 C2         -4.2884   -5.5400    5.7336 C.ar      1 <0>        -0.0294
      3 C3         -2.6234   -3.8310    6.0789 C.ar      1 <0>        -0.0143
      4 C4         -4.7385   -4.8800    4.5812 C.ar      1 <0>        -0.1552
      5 C5         -4.1052   -3.6965    4.1523 C.ar      1 <0>         0.3076
      6 C6         -3.0575   -3.1757    4.9254 C.ar      1 <0>        -0.4908
      7 C7          3.5686   -3.4379    3.7704 C.2       1 <0>         0.5994
      8 C8          0.8654   -1.4427    3.2413 C.2       1 <0>         0.6462
      9 C9         -0.8941   -7.9715   -0.0876 C.cat     1 <0>         0.6305
     10 C10        -5.8759   -5.4673    3.7804 C.3       1 <0>        -0.0319
     11 C11         3.4440   -0.0674    5.4719 C.3       1 <0>        -0.0918
     12 C12         3.1682   -2.4952    6.0163 C.3       1 <0>        -0.0841
     13 C13         2.9000   -0.3276    4.0730 C.3       1 <0>         0.0870
     14 C14        -5.4818   -3.6385    2.1112 C.3       1 <0>         0.2023
     15 C15         2.5392   -2.7371    4.6417 C.3       1 <0>         0.0778
     16 C16        -6.5499   -4.4038    2.8993 C.3       1 <0>        -0.0746
     17 C17         4.1435   -1.3104    6.0281 C.3       1 <0>        -0.0681
     18 C18        -7.5704   -5.0425    1.9612 C.3       1 <0>        -0.0944
     19 C19         4.6673   -1.0527    7.4396 C.3       1 <0>        -0.0918
     20 C20        -0.5404   -4.8511    2.0458 C.3       1 <0>        -0.1192
     21 C21         0.3004   -3.5693    2.0376 C.3       1 <0>        -0.0916
     22 C22        -0.1768   -5.7847    0.8978 C.3       1 <0>         0.1883
     23 C23        -0.0078   -2.6730    3.2260 C.3       1 <0>         0.1952
     24 N1         -4.5300   -3.0206    3.0151 N.pl3     1 <0>        -0.7670
     25 N2          2.0252   -1.5038    4.0223 N.am      1 <0>        -0.4509
     26 N3         -1.6898   -9.1122   -0.0609 N.pl3     1 <0>        -0.8477
     27 N4          0.0239   -7.8094   -1.1196 N.pl3     1 <0>        -0.8633
     28 N5         -0.9984   -6.9865    0.9003 N.pl3     1 <0>        -0.7419
     29 N6         -1.3760   -2.1385    3.1042 N.pl3     1 <0>        -0.8860
     30 O1          4.3335   -2.8779    2.9993 O.2       1 <0>        -0.5199
     31 O2          0.5240   -0.4555    2.5844 O.2       1 <0>        -0.6131
     32 O3         -3.2514   -0.7039    4.1330 O.2       1 <0>        -0.6576
     33 O4         -1.2997   -1.3890    5.5632 O.2       1 <0>        -0.6482
     34 O5          3.5241   -4.7791    3.9616 O.3       1 <0>        -0.6303
     35 S1         -2.2397   -1.6774    4.4970 S.o2      1 <0>         1.5193
     36 H1         -2.8954   -5.5270    7.3757 H         1 <0>         0.1426
     37 H2         -4.7626   -6.4639    6.0561 H         1 <0>         0.1398
     38 H3         -1.8065   -3.4094    6.6557 H         1 <0>         0.1599
     39 H4         -5.4767   -6.2793    3.1592 H         1 <0>         0.0574
     40 H5         -6.6243   -5.8997    4.4558 H         1 <0>         0.0629
     41 H6          4.1435    0.7764    5.4419 H         1 <0>         0.0614
     42 H7          2.6191    0.2214    6.1357 H         1 <0>         0.0593
     43 H8          2.3618   -2.2928    6.7345 H         1 <0>         0.0841
     44 H9          3.6813   -3.3988    6.3690 H         1 <0>         0.0679
     45 H10         2.3679    0.5618    3.7197 H         1 <0>         0.0826
     46 H11         3.7232   -0.5081    3.3711 H         1 <0>         0.0383
     47 H12        -4.9499   -4.3126    1.4283 H         1 <0>         0.0556
     48 H13        -5.9488   -2.8592    1.4988 H         1 <0>         0.0415
     49 H14         1.7211   -3.4548    4.7590 H         1 <0>         0.0851
     50 H15        -7.0837   -3.6956    3.5475 H         1 <0>         0.0639
     51 H16         5.0063   -1.5479    5.3937 H         1 <0>         0.0584
     52 H17        -8.2149   -4.2783    1.5167 H         1 <0>         0.0401
     53 H18        -7.0658   -5.5804    1.1530 H         1 <0>         0.0440
     54 H19        -8.2016   -5.7514    2.5054 H         1 <0>         0.0459
     55 H20         4.2777   -1.8006    8.1367 H         1 <0>         0.0456
     56 H21         5.7602   -1.1000    7.4588 H         1 <0>         0.0366
     57 H22         4.3590   -0.0627    7.7891 H         1 <0>         0.0474
     58 H23        -0.4002   -5.3741    2.9994 H         1 <0>         0.0800
     59 H24        -1.6035   -4.5964    1.9658 H         1 <0>         0.0681
     60 H25         0.1357   -3.0322    1.0943 H         1 <0>         0.0740
     61 H26         1.3654   -3.8328    2.0643 H         1 <0>         0.0631
     62 H27         0.8739   -6.0869    0.9513 H         1 <0>         0.0970
     63 H28        -0.3350   -5.2785   -0.0598 H         1 <0>         0.0725
     64 H29         0.1003   -3.1895    4.1787 H         1 <0>         0.0839
     65 H30        -3.9968   -2.2176    2.7049 H         1 <0>         0.4531
     66 H31        -2.3726   -9.2741    0.6745 H         1 <0>         0.4798
     67 H32        -1.6070   -9.8240   -0.7830 H         1 <0>         0.4881
     68 H33         0.6213   -6.9877   -1.1696 H         1 <0>         0.4801
     69 H34         0.1212   -8.5082   -1.8524 H         1 <0>         0.4806
     70 H35        -1.6814   -7.1337    1.6450 H         1 <0>         0.4689
     71 H36        -1.6042   -1.6955    2.2078 H         1 <0>         0.4505
     72 H37         4.1809   -5.2504    3.4059 H         1 <0>         0.4443
@<TRIPOS>BOND
     1    1    2 ar
     2    1    3 ar
     3    2    4 ar
     4    3    6 ar
     5    4    5 ar
     6    4   10 1
     7    5    6 ar
     8    5   24 1
     9    6   35 1
    10    7   15 1
    11    7   30 2
    12    7   34 1
    13    8   23 1
    14    8   25 am
    15    8   31 2
    16    9   26 1
    17    9   27 1
    18    9   28 1
    19   10   16 1
    20   11   13 1
    21   11   17 1
    22   12   15 1
    23   12   17 1
    24   13   25 1
    25   14   16 1
    26   14   24 1
    27   15   25 1
    28   16   18 1
    29   17   19 1
    30   20   21 1
    31   20   22 1
    32   21   23 1
    33   22   28 1
    34   23   29 1
    35   29   35 1
    36   32   35 2
    37   33   35 2
    38    1   36 1
    39    2   37 1
    40    3   38 1
    41   10   39 1
    42   10   40 1
    43   11   41 1
    44   11   42 1
    45   12   43 1
    46   12   44 1
    47   13   45 1
    48   13   46 1
    49   14   47 1
    50   14   48 1
    51   15   49 1
    52   16   50 1
    53   17   51 1
    54   18   52 1
    55   18   53 1
    56   18   54 1
    57   19   55 1
    58   19   56 1
    59   19   57 1
    60   20   58 1
    61   20   59 1
    62   21   60 1
    63   21   61 1
    64   22   62 1
    65   22   63 1
    66   23   64 1
    67   24   65 1
    68   26   66 1
    69   26   67 1
    70   27   68 1
    71   27   69 1
    72   28   70 1
    73   29   71 1
    74   34   72 1
@<TRIPOS>MOLECULE
1dwc_ligand_9
   72    74     0     0     0
SMALL
USER_CHARGES

mmff94s_NoEstat = 72.09
@<TRIPOS>ATOM
      1 C1         -3.2355   -5.0148    6.4799 C.ar      1 <0>        -0.1945
      2 C2         -4.2884   -5.5400    5.7336 C.ar      1 <0>        -0.0294
      3 C3         -2.6234   -3.8310    6.0789 C.ar      1 <0>        -0.0143
      4 C4         -4.7385   -4.8800    4.5812 C.ar      1 <0>        -0.1552
      5 C5         -4.1052   -3.6965    4.1523 C.ar      1 <0>         0.3076
      6 C6         -3.0575   -3.1757    4.9254 C.ar      1 <0>        -0.4908
      7 C7          3.5686   -3.4379    3.7704 C.2       1 <0>         0.5994
      8 C8          0.8654   -1.4427    3.2413 C.2       1 <0>         0.6462
      9 C9          1.4604   -6.7192    4.6765 C.cat     1 <0>         0.6305
     10 C10        -5.8759   -5.4673    3.7804 C.3       1 <0>        -0.0319
     11 C11         3.4440   -0.0674    5.4719 C.3       1 <0>        -0.0918
     12 C12         3.1682   -2.4952    6.0163 C.3       1 <0>        -0.0841
     13 C13         2.9000   -0.3276    4.0730 C.3       1 <0>         0.0870
     14 C14        -5.4818   -3.6385    2.1112 C.3       1 <0>         0.2023
     15 C15         2.5392   -2.7371    4.6417 C.3       1 <0>         0.0778
     16 C16        -6.5499   -4.4038    2.8993 C.3       1 <0>        -0.0746
     17 C17         4.1435   -1.3104    6.0281 C.3       1 <0>        -0.0681
     18 C18        -7.5704   -5.0425    1.9612 C.3       1 <0>        -0.0944
     19 C19         4.6673   -1.0527    7.4396 C.3       1 <0>        -0.0918
     20 C20        -0.5404   -4.8511    2.0458 C.3       1 <0>        -0.1192
     21 C21         0.3004   -3.5693    2.0376 C.3       1 <0>        -0.0916
     22 C22        -0.3597   -5.6492    3.3311 C.3       1 <0>         0.1883
     23 C23        -0.0078   -2.6730    3.2260 C.3       1 <0>         0.1952
     24 N1         -4.5300   -3.0206    3.0151 N.pl3     1 <0>        -0.7670
     25 N2          2.0252   -1.5038    4.0223 N.am      1 <0>        -0.4509
     26 N3          2.7946   -7.0727    4.8490 N.pl3     1 <0>        -0.8477
     27 N4          0.5364   -7.0602    5.6583 N.pl3     1 <0>        -0.8633
     28 N5          1.0303   -6.0293    3.5380 N.pl3     1 <0>        -0.7419
     29 N6         -1.3760   -2.1385    3.1042 N.pl3     1 <0>        -0.8860
     30 O1          4.1316   -4.4849    4.0536 O.2       1 <0>        -0.5199
     31 O2          0.5240   -0.4555    2.5844 O.2       1 <0>        -0.6131
     32 O3         -3.2514   -0.7039    4.1330 O.2       1 <0>        -0.6576
     33 O4         -1.2997   -1.3890    5.5632 O.2       1 <0>        -0.6482
     34 O5          3.7837   -2.7404    2.6283 O.3       1 <0>        -0.6303
     35 S1         -2.2397   -1.6774    4.4970 S.o2      1 <0>         1.5193
     36 H1         -2.8954   -5.5270    7.3757 H         1 <0>         0.1426
     37 H2         -4.7626   -6.4639    6.0561 H         1 <0>         0.1398
     38 H3         -1.8065   -3.4094    6.6557 H         1 <0>         0.1599
     39 H4         -5.4767   -6.2793    3.1592 H         1 <0>         0.0574
     40 H5         -6.6243   -5.8997    4.4558 H         1 <0>         0.0629
     41 H6          4.1435    0.7764    5.4419 H         1 <0>         0.0614
     42 H7          2.6191    0.2214    6.1357 H         1 <0>         0.0593
     43 H8          2.3618   -2.2928    6.7345 H         1 <0>         0.0841
     44 H9          3.6813   -3.3988    6.3690 H         1 <0>         0.0679
     45 H10         2.3679    0.5618    3.7197 H         1 <0>         0.0826
     46 H11         3.7232   -0.5081    3.3711 H         1 <0>         0.0383
     47 H12        -4.9499   -4.3126    1.4283 H         1 <0>         0.0556
     48 H13        -5.9488   -2.8592    1.4988 H         1 <0>         0.0415
     49 H14         1.7211   -3.4548    4.7590 H         1 <0>         0.0851
     50 H15        -7.0837   -3.6956    3.5475 H         1 <0>         0.0639
     51 H16         5.0063   -1.5479    5.3937 H         1 <0>         0.0584
     52 H17        -8.2149   -4.2783    1.5167 H         1 <0>         0.0401
     53 H18        -7.0658   -5.5804    1.1530 H         1 <0>         0.0440
     54 H19        -8.2016   -5.7514    2.5054 H         1 <0>         0.0459
     55 H20         4.2777   -1.8006    8.1367 H         1 <0>         0.0456
     56 H21         5.7602   -1.1000    7.4588 H         1 <0>         0.0366
     57 H22         4.3590   -0.0627    7.7891 H         1 <0>         0.0474
     58 H23        -1.5993   -4.5943    1.9218 H         1 <0>         0.0800
     59 H24        -0.2563   -5.4850    1.1980 H         1 <0>         0.0681
     60 H25         0.1357   -3.0322    1.0943 H         1 <0>         0.0740
     61 H26         1.3654   -3.8328    2.0643 H         1 <0>         0.0631
     62 H27        -0.9667   -6.5601    3.3198 H         1 <0>         0.0970
     63 H28        -0.6690   -5.0471    4.1914 H         1 <0>         0.0725
     64 H29         0.1003   -3.1895    4.1787 H         1 <0>         0.0839
     65 H30        -3.9968   -2.2176    2.7049 H         1 <0>         0.4531
     66 H31         3.5044   -6.8463    4.1574 H         1 <0>         0.4798
     67 H32         3.0989   -7.5750    5.6798 H         1 <0>         0.4881
     68 H33        -0.4468   -6.8174    5.5641 H         1 <0>         0.4801
     69 H34         0.8200   -7.5607    6.4972 H         1 <0>         0.4806
     70 H35         1.7319   -5.7928    2.8348 H         1 <0>         0.4689
     71 H36        -1.6042   -1.6955    2.2078 H         1 <0>         0.4505
     72 H37         4.4476   -3.1762    2.0524 H         1 <0>         0.4443
@<TRIPOS>BOND
     1    1    2 ar
     2    1    3 ar
     3    2    4 ar
     4    3    6 ar
     5    4    5 ar
     6    4   10 1
     7    5    6 ar
     8    5   24 1
     9    6   35 1
    10    7   15 1
    11    7   30 2
    12    7   34 1
    13    8   23 1
    14    8   25 am
    15    8   31 2
    16    9   26 1
    17    9   27 1
    18    9   28 1
    19   10   16 1
    20   11   13 1
    21   11   17 1
    22   12   15 1
    23   12   17 1
    24   13   25 1
    25   14   16 1
    26   14   24 1
    27   15   25 1
    28   16   18 1
    29   17   19 1
    30   20   21 1
    31   20   22 1
    32   21   23 1
    33   22   28 1
    34   23   29 1
    35   29   35 1
    36   32   35 2
    37   33   35 2
    38    1   36 1
    39    2   37 1
    40    3   38 1
    41   10   39 1
    42   10   40 1
    43   11   41 1
    44   11   42 1
    45   12   43 1
    46   12   44 1
    47   13   45 1
    48   13   46 1
    49   14   47 1
    50   14   48 1
    51   15   49 1
    52   16   50 1
    53   17   51 1
    54   18   52 1
    55   18   53 1
    56   18   54 1
    57   19   55 1
    58   19   56 1
    59   19   57 1
    60   20   58 1
    61   20   59 1
    62   21   60 1
    63   21   61 1
    64   22   62 1
    65   22   63 1
    66   23   64 1
    67   24   65 1
    68   26   66 1
    69   26   67 1
    70   27   68 1
    71   27   69 1
    72   28   70 1
    73   29   71 1
    74   34   72 1
@<TRIPOS>MOLECULE
1dwc_ligand_10
   72    74     0     0     0
SMALL
USER_CHARGES

mmff94s_NoEstat = 72.09
@<TRIPOS>ATOM
      1 C1         -0.5687   -1.8484    7.8285 C.ar      1 <0>        -0.1945
      2 C2         -0.3952   -0.4679    7.9011 C.ar      1 <0>        -0.0294
      3 C3         -1.2191   -2.4094    6.7334 C.ar      1 <0>        -0.0143
      4 C4         -0.8690    0.3609    6.8741 C.ar      1 <0>        -0.1552
      5 C5         -1.5541   -0.1965    5.7761 C.ar      1 <0>         0.3076
      6 C6         -1.7052   -1.5894    5.7138 C.ar      1 <0>        -0.4908
      7 C7          4.0428   -2.6510    3.1279 C.2       1 <0>         0.5994
      8 C8          0.8654   -1.4427    3.2413 C.2       1 <0>         0.6462
      9 C9         -0.8941   -7.9715   -0.0876 C.cat     1 <0>         0.6305
     10 C10        -0.6787    1.8556    6.9729 C.3       1 <0>        -0.0319
     11 C11         3.0349   -0.4758    6.0475 C.3       1 <0>        -0.0918
     12 C12         3.4817   -2.8819    5.5206 C.3       1 <0>        -0.0841
     13 C13         2.5314   -0.2662    4.6251 C.3       1 <0>         0.0870
     14 C14        -2.0484    2.0439    4.8813 C.3       1 <0>         0.2023
     15 C15         2.8926   -2.6899    4.1206 C.3       1 <0>         0.0778
     16 C16        -0.7810    2.5267    5.5942 C.3       1 <0>        -0.0746
     17 C17         4.0802   -1.5931    6.1000 C.3       1 <0>        -0.0681
     18 C18        -0.7731    4.0470    5.7280 C.3       1 <0>        -0.0944
     19 C19         4.5654   -1.8157    7.5311 C.3       1 <0>        -0.0918
     20 C20        -0.5404   -4.8511    2.0458 C.3       1 <0>        -0.1192
     21 C21         0.3004   -3.5693    2.0376 C.3       1 <0>        -0.0916
     22 C22        -0.1768   -5.7847    0.8978 C.3       1 <0>         0.1883
     23 C23        -0.0078   -2.6730    3.2260 C.3       1 <0>         0.1952
     24 N1         -2.0339    0.5998    4.7435 N.pl3     1 <0>        -0.7670
     25 N2          2.0252   -1.5038    4.0223 N.am      1 <0>        -0.4509
     26 N3         -1.6898   -9.1122   -0.0609 N.pl3     1 <0>        -0.8477
     27 N4          0.0239   -7.8094   -1.1196 N.pl3     1 <0>        -0.8633
     28 N5         -0.9984   -6.9865    0.9003 N.pl3     1 <0>        -0.7419
     29 N6         -1.3760   -2.1385    3.1042 N.pl3     1 <0>        -0.8860
     30 O1          4.5855   -1.6340    2.7222 O.2       1 <0>        -0.5199
     31 O2          0.5240   -0.4555    2.5844 O.2       1 <0>        -0.6131
     32 O3         -2.5906   -3.7967    4.6561 O.2       1 <0>        -0.6576
     33 O4         -3.7019   -1.6181    4.0705 O.2       1 <0>        -0.6482
     34 O5          4.3885   -3.9048    2.7464 O.3       1 <0>        -0.6303
     35 S1         -2.5018   -2.3799    4.3583 S.o2      1 <0>         1.5193
     36 H1         -0.1935   -2.4863    8.6241 H         1 <0>         0.1426
     37 H2          0.1168   -0.0386    8.7590 H         1 <0>         0.1398
     38 H3         -1.3546   -3.4839    6.6632 H         1 <0>         0.1599
     39 H4         -1.4443    2.2564    7.6493 H         1 <0>         0.0574
     40 H5          0.3029    2.0794    7.4083 H         1 <0>         0.0629
     41 H6          3.4643    0.4595    6.4257 H         1 <0>         0.0614
     42 H7          2.1893   -0.7290    6.6997 H         1 <0>         0.0593
     43 H8          2.6805   -3.2276    6.1882 H         1 <0>         0.0841
     44 H9          4.2439   -3.6714    5.5123 H         1 <0>         0.0679
     45 H10         1.7550    0.5058    4.6255 H         1 <0>         0.0826
     46 H11         3.3431    0.0962    3.9827 H         1 <0>         0.0383
     47 H12        -2.9433    2.3470    5.4389 H         1 <0>         0.0556
     48 H13        -2.1184    2.4959    3.8856 H         1 <0>         0.0415
     49 H14         2.3173   -3.5850    3.8636 H         1 <0>         0.0851
     50 H15         0.0923    2.2358    4.9947 H         1 <0>         0.0639
     51 H16         4.9487   -1.2974    5.4988 H         1 <0>         0.0584
     52 H17        -0.6000    4.5176    4.7555 H         1 <0>         0.0401
     53 H18        -1.7312    4.4037    6.1178 H         1 <0>         0.0440
     54 H19         0.0183    4.3685    6.4117 H         1 <0>         0.0459
     55 H20         4.4326   -2.8615    7.8238 H         1 <0>         0.0456
     56 H21         5.6267   -1.5650    7.6207 H         1 <0>         0.0366
     57 H22         4.0032   -1.1886    8.2295 H         1 <0>         0.0474
     58 H23        -0.4002   -5.3741    2.9994 H         1 <0>         0.0800
     59 H24        -1.6035   -4.5964    1.9658 H         1 <0>         0.0681
     60 H25         0.1357   -3.0322    1.0943 H         1 <0>         0.0740
     61 H26         1.3654   -3.8328    2.0643 H         1 <0>         0.0631
     62 H27         0.8739   -6.0869    0.9513 H         1 <0>         0.0970
     63 H28        -0.3350   -5.2785   -0.0598 H         1 <0>         0.0725
     64 H29         0.1003   -3.1895    4.1787 H         1 <0>         0.0839
     65 H30        -2.5847    0.1629    4.0147 H         1 <0>         0.4531
     66 H31        -2.3726   -9.2741    0.6745 H         1 <0>         0.4798
     67 H32        -1.6070   -9.8240   -0.7830 H         1 <0>         0.4881
     68 H33         0.6213   -6.9877   -1.1696 H         1 <0>         0.4801
     69 H34         0.1212   -8.5082   -1.8524 H         1 <0>         0.4806
     70 H35        -1.6814   -7.1337    1.6450 H         1 <0>         0.4689
     71 H36        -1.4850   -1.3266    2.4871 H         1 <0>         0.4505
     72 H37         5.1292   -3.9010    2.1032 H         1 <0>         0.4443
@<TRIPOS>BOND
     1    1    2 ar
     2    1    3 ar
     3    2    4 ar
     4    3    6 ar
     5    4    5 ar
     6    4   10 1
     7    5    6 ar
     8    5   24 1
     9    6   35 1
    10    7   15 1
    11    7   30 2
    12    7   34 1
    13    8   23 1
    14    8   25 am
    15    8   31 2
    16    9   26 1
    17    9   27 1
    18    9   28 1
    19   10   16 1
    20   11   13 1
    21   11   17 1
    22   12   15 1
    23   12   17 1
    24   13   25 1
    25   14   16 1
    26   14   24 1
    27   15   25 1
    28   16   18 1
    29   17   19 1
    30   20   21 1
    31   20   22 1
    32   21   23 1
    33   22   28 1
    34   23   29 1
    35   29   35 1
    36   32   35 2
    37   33   35 2
    38    1   36 1
    39    2   37 1
    40    3   38 1
    41   10   39 1
    42   10   40 1
    43   11   41 1
    44   11   42 1
    45   12   43 1
    46   12   44 1
    47   13   45 1
    48   13   46 1
    49   14   47 1
    50   14   48 1
    51   15   49 1
    52   16   50 1
    53   17   51 1
    54   18   52 1
    55   18   53 1
    56   18   54 1
    57   19   55 1
    58   19   56 1
    59   19   57 1
    60   20   58 1
    61   20   59 1
    62   21   60 1
    63   21   61 1
    64   22   62 1
    65   22   63 1
    66   23   64 1
    67   24   65 1
    68   26   66 1
    69   26   67 1
    70   27   68 1
    71   27   69 1
    72   28   70 1
    73   29   71 1
    74   34   72 1
@<TRIPOS>MOLECULE
1dwc_ligand_11
   72    74     0     0     0
SMALL
USER_CHARGES

mmff94s_NoEstat = 72.21
@<TRIPOS>ATOM
      1 C1         -1.5516   -4.4277    7.3298 C.ar      1 <0>        -0.1945
      2 C2         -2.3348   -5.5104    6.9352 C.ar      1 <0>        -0.0294
      3 C3         -1.5385   -3.2654    6.5644 C.ar      1 <0>        -0.0143
      4 C4         -3.1142   -5.4347    5.7720 C.ar      1 <0>        -0.1552
      5 C5         -3.0840   -4.2723    4.9761 C.ar      1 <0>         0.3076
      6 C6         -2.3015   -3.1877    5.3982 C.ar      1 <0>        -0.4908
      7 C7          3.5686   -3.4379    3.7704 C.2       1 <0>         0.5994
      8 C8          0.8654   -1.4427    3.2413 C.2       1 <0>         0.6462
      9 C9         -0.8941   -7.9715   -0.0876 C.cat     1 <0>         0.6305
     10 C10        -3.9512   -6.6204    5.3554 C.3       1 <0>        -0.0319
     11 C11         3.4440   -0.0674    5.4719 C.3       1 <0>        -0.0918
     12 C12         3.1682   -2.4952    6.0163 C.3       1 <0>        -0.0841
     13 C13         2.9000   -0.3276    4.0730 C.3       1 <0>         0.0870
     14 C14        -4.5113   -5.3376    3.2753 C.3       1 <0>         0.2023
     15 C15         2.5392   -2.7371    4.6417 C.3       1 <0>         0.0778
     16 C16        -5.0831   -6.2018    4.4040 C.3       1 <0>        -0.0746
     17 C17         4.1435   -1.3104    6.0281 C.3       1 <0>        -0.0681
     18 C18        -5.8039   -7.4257    3.8454 C.3       1 <0>        -0.0944
     19 C19         4.6673   -1.0527    7.4396 C.3       1 <0>        -0.0918
     20 C20        -0.5404   -4.8511    2.0458 C.3       1 <0>        -0.1192
     21 C21         0.3004   -3.5693    2.0376 C.3       1 <0>        -0.0916
     22 C22        -0.1768   -5.7847    0.8978 C.3       1 <0>         0.1883
     23 C23        -0.0078   -2.6730    3.2260 C.3       1 <0>         0.1952
     24 N1         -3.8463   -4.1684    3.8190 N.pl3     1 <0>        -0.7670
     25 N2          2.0252   -1.5038    4.0223 N.am      1 <0>        -0.4509
     26 N3         -1.6898   -9.1122   -0.0609 N.pl3     1 <0>        -0.8477
     27 N4          0.0239   -7.8094   -1.1196 N.pl3     1 <0>        -0.8633
     28 N5         -0.9984   -6.9865    0.9003 N.pl3     1 <0>        -0.7419
     29 N6         -1.3760   -2.1385    3.1042 N.pl3     1 <0>        -0.8860
     30 O1          4.3335   -2.8779    2.9993 O.2       1 <0>        -0.5199
     31 O2          0.5240   -0.4555    2.5844 O.2       1 <0>        -0.6131
     32 O3         -3.5960   -1.3232    4.1243 O.2       1 <0>        -0.6576
     33 O4         -1.4314   -0.7555    5.2719 O.2       1 <0>        -0.6482
     34 O5          3.5241   -4.7791    3.9616 O.3       1 <0>        -0.6303
     35 S1         -2.2397   -1.6774    4.4970 S.o2      1 <0>         1.5193
     36 H1         -0.9549   -4.4896    8.2356 H         1 <0>         0.1426
     37 H2         -2.3412   -6.4135    7.5409 H         1 <0>         0.1398
     38 H3         -0.9370   -2.4135    6.8653 H         1 <0>         0.1599
     39 H4         -3.2943   -7.3516    4.8675 H         1 <0>         0.0574
     40 H5         -4.3865   -7.1001    6.2407 H         1 <0>         0.0629
     41 H6          4.1435    0.7764    5.4419 H         1 <0>         0.0614
     42 H7          2.6191    0.2214    6.1357 H         1 <0>         0.0593
     43 H8          2.3618   -2.2928    6.7345 H         1 <0>         0.0841
     44 H9          3.6813   -3.3988    6.3690 H         1 <0>         0.0679
     45 H10         2.3679    0.5618    3.7197 H         1 <0>         0.0826
     46 H11         3.7232   -0.5081    3.3711 H         1 <0>         0.0383
     47 H12        -3.7986   -5.9137    2.6721 H         1 <0>         0.0556
     48 H13        -5.3138   -5.0110    2.6047 H         1 <0>         0.0415
     49 H14         1.7211   -3.4548    4.7590 H         1 <0>         0.0851
     50 H15        -5.8148   -5.6064    4.9667 H         1 <0>         0.0639
     51 H16         5.0063   -1.5479    5.3937 H         1 <0>         0.0584
     52 H17        -6.7464   -7.1341    3.3725 H         1 <0>         0.0401
     53 H18        -5.1841   -7.9286    3.0971 H         1 <0>         0.0440
     54 H19        -6.0259   -8.1390    4.6448 H         1 <0>         0.0459
     55 H20         4.2777   -1.8006    8.1367 H         1 <0>         0.0456
     56 H21         5.7602   -1.1000    7.4588 H         1 <0>         0.0366
     57 H22         4.3590   -0.0627    7.7891 H         1 <0>         0.0474
     58 H23        -0.4002   -5.3741    2.9994 H         1 <0>         0.0800
     59 H24        -1.6035   -4.5964    1.9658 H         1 <0>         0.0681
     60 H25         0.1357   -3.0322    1.0943 H         1 <0>         0.0740
     61 H26         1.3654   -3.8328    2.0643 H         1 <0>         0.0631
     62 H27         0.8739   -6.0869    0.9513 H         1 <0>         0.0970
     63 H28        -0.3350   -5.2785   -0.0598 H         1 <0>         0.0725
     64 H29         0.1003   -3.1895    4.1787 H         1 <0>         0.0839
     65 H30        -3.7341   -3.3447    3.2409 H         1 <0>         0.4531
     66 H31        -2.3726   -9.2741    0.6745 H         1 <0>         0.4798
     67 H32        -1.6070   -9.8240   -0.7830 H         1 <0>         0.4881
     68 H33         0.6213   -6.9877   -1.1696 H         1 <0>         0.4801
     69 H34         0.1212   -8.5082   -1.8524 H         1 <0>         0.4806
     70 H35        -1.6814   -7.1337    1.6450 H         1 <0>         0.4689
     71 H36        -1.6042   -1.6955    2.2078 H         1 <0>         0.4505
     72 H37         4.1809   -5.2504    3.4059 H         1 <0>         0.4443
@<TRIPOS>BOND
     1    1    2 ar
     2    1    3 ar
     3    2    4 ar
     4    3    6 ar
     5    4    5 ar
     6    4   10 1
     7    5    6 ar
     8    5   24 1
     9    6   35 1
    10    7   15 1
    11    7   30 2
    12    7   34 1
    13    8   23 1
    14    8   25 am
    15    8   31 2
    16    9   26 1
    17    9   27 1
    18    9   28 1
    19   10   16 1
    20   11   13 1
    21   11   17 1
    22   12   15 1
    23   12   17 1
    24   13   25 1
    25   14   16 1
    26   14   24 1
    27   15   25 1
    28   16   18 1
    29   17   19 1
    30   20   21 1
    31   20   22 1
    32   21   23 1
    33   22   28 1
    34   23   29 1
    35   29   35 1
    36   32   35 2
    37   33   35 2
    38    1   36 1
    39    2   37 1
    40    3   38 1
    41   10   39 1
    42   10   40 1
    43   11   41 1
    44   11   42 1
    45   12   43 1
    46   12   44 1
    47   13   45 1
    48   13   46 1
    49   14   47 1
    50   14   48 1
    51   15   49 1
    52   16   50 1
    53   17   51 1
    54   18   52 1
    55   18   53 1
    56   18   54 1
    57   19   55 1
    58   19   56 1
    59   19   57 1
    60   20   58 1
    61   20   59 1
    62   21   60 1
    63   21   61 1
    64   22   62 1
    65   22   63 1
    66   23   64 1
    67   24   65 1
    68   26   66 1
    69   26   67 1
    70   27   68 1
    71   27   69 1
    72   28   70 1
    73   29   71 1
    74   34   72 1
@<TRIPOS>MOLECULE
1dwc_ligand_12
   72    74     0     0     0
SMALL
USER_CHARGES

mmff94s_NoEstat = 72.69
@<TRIPOS>ATOM
      1 C1         -0.5523    1.6744    5.9041 C.ar      1 <0>        -0.1945
      2 C2         -0.9694    2.6552    5.0066 C.ar      1 <0>        -0.0294
      3 C3         -0.9569    0.3546    5.7269 C.ar      1 <0>        -0.0143
      4 C4         -1.7923    2.3195    3.9220 C.ar      1 <0>        -0.1552
      5 C5         -2.2299    0.9909    3.7521 C.ar      1 <0>         0.3076
      6 C6         -1.7869    0.0155    4.6571 C.ar      1 <0>        -0.4908
      7 C7          3.5686   -3.4379    3.7704 C.2       1 <0>         0.5994
      8 C8          0.8654   -1.4427    3.2413 C.2       1 <0>         0.6462
      9 C9          1.7699   -7.1193    0.0630 C.cat     1 <0>         0.6305
     10 C10        -2.2407    3.3967    2.9635 C.3       1 <0>        -0.0319
     11 C11         3.4440   -0.0674    5.4719 C.3       1 <0>        -0.0918
     12 C12         3.1682   -2.4952    6.0163 C.3       1 <0>        -0.0841
     13 C13         2.9000   -0.3276    4.0730 C.3       1 <0>         0.0870
     14 C14        -3.6561    1.6489    1.8554 C.3       1 <0>         0.2023
     15 C15         2.5392   -2.7371    4.6417 C.3       1 <0>         0.0778
     16 C16        -2.6763    2.8021    1.6150 C.3       1 <0>        -0.0746
     17 C17         4.1435   -1.3104    6.0281 C.3       1 <0>        -0.0681
     18 C18        -3.2993    3.8738    0.7246 C.3       1 <0>        -0.0944
     19 C19         4.6673   -1.0527    7.4396 C.3       1 <0>        -0.0918
     20 C20        -0.5404   -4.8511    2.0458 C.3       1 <0>        -0.1192
     21 C21         0.3004   -3.5693    2.0376 C.3       1 <0>        -0.0916
     22 C22        -0.1768   -5.7847    0.8978 C.3       1 <0>         0.1883
     23 C23        -0.0078   -2.6730    3.2260 C.3       1 <0>         0.1952
     24 N1         -3.0449    0.6290    2.6865 N.pl3     1 <0>        -0.7670
     25 N2          2.0252   -1.5038    4.0223 N.am      1 <0>        -0.4509
     26 N3          3.1011   -7.5120    0.1550 N.pl3     1 <0>        -0.8477
     27 N4          0.9786   -7.6393   -0.9556 N.pl3     1 <0>        -0.8633
     28 N5          1.2122   -6.2141    0.9723 N.pl3     1 <0>        -0.7419
     29 N6         -1.3760   -2.1385    3.1042 N.pl3     1 <0>        -0.8860
     30 O1          4.3335   -2.8779    2.9993 O.2       1 <0>        -0.5199
     31 O2          0.5240   -0.4555    2.5844 O.2       1 <0>        -0.6131
     32 O3         -1.7140   -2.3916    5.6449 O.2       1 <0>        -0.6576
     33 O4         -3.6601   -1.7094    4.2056 O.2       1 <0>        -0.6482
     34 O5          3.5241   -4.7791    3.9616 O.3       1 <0>        -0.6303
     35 S1         -2.2397   -1.6774    4.4970 S.o2      1 <0>         1.5193
     36 H1          0.0908    1.9391    6.7389 H         1 <0>         0.1426
     37 H2         -0.6459    3.6833    5.1512 H         1 <0>         0.1398
     38 H3         -0.6333   -0.4189    6.4161 H         1 <0>         0.1599
     39 H4         -3.0724    3.9441    3.4249 H         1 <0>         0.0574
     40 H5         -1.4243    4.1094    2.7937 H         1 <0>         0.0629
     41 H6          4.1435    0.7764    5.4419 H         1 <0>         0.0614
     42 H7          2.6191    0.2214    6.1357 H         1 <0>         0.0593
     43 H8          2.3618   -2.2928    6.7345 H         1 <0>         0.0841
     44 H9          3.6813   -3.3988    6.3690 H         1 <0>         0.0679
     45 H10         2.3679    0.5618    3.7197 H         1 <0>         0.0826
     46 H11         3.7232   -0.5081    3.3711 H         1 <0>         0.0383
     47 H12        -4.5696    2.0142    2.3409 H         1 <0>         0.0556
     48 H13        -3.9536    1.1996    0.9014 H         1 <0>         0.0415
     49 H14         1.7211   -3.4548    4.7590 H         1 <0>         0.0851
     50 H15        -1.7894    2.4087    1.1001 H         1 <0>         0.0639
     51 H16         5.0063   -1.5479    5.3937 H         1 <0>         0.0584
     52 H17        -3.3831    3.5161   -0.3060 H         1 <0>         0.0401
     53 H18        -4.3001    4.1356    1.0809 H         1 <0>         0.0440
     54 H19        -2.6852    4.7793    0.7260 H         1 <0>         0.0459
     55 H20         4.2777   -1.8006    8.1367 H         1 <0>         0.0456
     56 H21         5.7602   -1.1000    7.4588 H         1 <0>         0.0366
     57 H22         4.3590   -0.0627    7.7891 H         1 <0>         0.0474
     58 H23        -0.4002   -5.3741    2.9994 H         1 <0>         0.0800
     59 H24        -1.6035   -4.5964    1.9658 H         1 <0>         0.0681
     60 H25         0.1357   -3.0322    1.0943 H         1 <0>         0.0740
     61 H26         1.3654   -3.8328    2.0643 H         1 <0>         0.0631
     62 H27        -0.3350   -5.3004   -0.0711 H         1 <0>         0.0970
     63 H28        -0.8024   -6.6822    0.9336 H         1 <0>         0.0725
     64 H29         0.1003   -3.1895    4.1787 H         1 <0>         0.0839
     65 H30        -3.3945   -0.3205    2.6487 H         1 <0>         0.4531
     66 H31         3.7173   -7.1568    0.8813 H         1 <0>         0.4798
     67 H32         3.4989   -8.1703   -0.5108 H         1 <0>         0.4881
     68 H33         0.0016   -7.3736   -1.0521 H         1 <0>         0.4801
     69 H34         1.3562   -8.3001   -1.6305 H         1 <0>         0.4806
     70 H35         1.8180   -5.8498    1.7091 H         1 <0>         0.4689
     71 H36        -1.6042   -1.6955    2.2078 H         1 <0>         0.4505
     72 H37         4.1809   -5.2504    3.4059 H         1 <0>         0.4443
@<TRIPOS>BOND
     1    1    2 ar
     2    1    3 ar
     3    2    4 ar
     4    3    6 ar
     5    4    5 ar
     6    4   10 1
     7    5    6 ar
     8    5   24 1
     9    6   35 1
    10    7   15 1
    11    7   30 2
    12    7   34 1
    13    8   23 1
    14    8   25 am
    15    8   31 2
    16    9   26 1
    17    9   27 1
    18    9   28 1
    19   10   16 1
    20   11   13 1
    21   11   17 1
    22   12   15 1
    23   12   17 1
    24   13   25 1
    25   14   16 1
    26   14   24 1
    27   15   25 1
    28   16   18 1
    29   17   19 1
    30   20   21 1
    31   20   22 1
    32   21   23 1
    33   22   28 1
    34   23   29 1
    35   29   35 1
    36   32   35 2
    37   33   35 2
    38    1   36 1
    39    2   37 1
    40    3   38 1
    41   10   39 1
    42   10   40 1
    43   11   41 1
    44   11   42 1
    45   12   43 1
    46   12   44 1
    47   13   45 1
    48   13   46 1
    49   14   47 1
    50   14   48 1
    51   15   49 1
    52   16   50 1
    53   17   51 1
    54   18   52 1
    55   18   53 1
    56   18   54 1
    57   19   55 1
    58   19   56 1
    59   19   57 1
    60   20   58 1
    61   20   59 1
    62   21   60 1
    63   21   61 1
    64   22   62 1
    65   22   63 1
    66   23   64 1
    67   24   65 1
    68   26   66 1
    69   26   67 1
    70   27   68 1
    71   27   69 1
    72   28   70 1
    73   29   71 1
    74   34   72 1
@<TRIPOS>MOLECULE
1dwc_ligand_13
   72    74     0     0     0
SMALL
USER_CHARGES

mmff94s_NoEstat = 72.82
@<TRIPOS>ATOM
      1 C1         -0.5687   -1.8484    7.8285 C.ar      1 <0>        -0.1945
      2 C2         -0.3952   -0.4679    7.9011 C.ar      1 <0>        -0.0294
      3 C3         -1.2191   -2.4094    6.7334 C.ar      1 <0>        -0.0143
      4 C4         -0.8690    0.3609    6.8741 C.ar      1 <0>        -0.1552
      5 C5         -1.5541   -0.1965    5.7761 C.ar      1 <0>         0.3076
      6 C6         -1.7052   -1.5894    5.7138 C.ar      1 <0>        -0.4908
      7 C7          4.0428   -2.6510    3.1279 C.2       1 <0>         0.5994
      8 C8          0.8654   -1.4427    3.2413 C.2       1 <0>         0.6462
      9 C9          1.6156   -7.3323    1.7100 C.cat     1 <0>         0.6305
     10 C10        -0.6787    1.8556    6.9729 C.3       1 <0>        -0.0319
     11 C11         3.0349   -0.4758    6.0475 C.3       1 <0>        -0.0918
     12 C12         3.4817   -2.8819    5.5206 C.3       1 <0>        -0.0841
     13 C13         2.5314   -0.2662    4.6251 C.3       1 <0>         0.0870
     14 C14        -2.0484    2.0439    4.8813 C.3       1 <0>         0.2023
     15 C15         2.8926   -2.6899    4.1206 C.3       1 <0>         0.0778
     16 C16        -0.7810    2.5267    5.5942 C.3       1 <0>        -0.0746
     17 C17         4.0802   -1.5931    6.1000 C.3       1 <0>        -0.0681
     18 C18        -0.7731    4.0470    5.7280 C.3       1 <0>        -0.0944
     19 C19         4.5654   -1.8157    7.5311 C.3       1 <0>        -0.0918
     20 C20        -0.5404   -4.8511    2.0458 C.3       1 <0>        -0.1192
     21 C21         0.3004   -3.5693    2.0376 C.3       1 <0>        -0.0916
     22 C22        -0.1768   -5.7847    0.8978 C.3       1 <0>         0.1883
     23 C23        -0.0078   -2.6730    3.2260 C.3       1 <0>         0.1952
     24 N1         -2.0339    0.5998    4.7435 N.pl3     1 <0>        -0.7670
     25 N2          2.0252   -1.5038    4.0223 N.am      1 <0>        -0.4509
     26 N3          2.9496   -7.7229    1.7631 N.pl3     1 <0>        -0.8477
     27 N4          0.6648   -8.0708    2.4061 N.pl3     1 <0>        -0.8633
     28 N5          1.2122   -6.2141    0.9723 N.pl3     1 <0>        -0.7419
     29 N6         -1.3760   -2.1385    3.1042 N.pl3     1 <0>        -0.8860
     30 O1          4.5855   -1.6340    2.7222 O.2       1 <0>        -0.5199
     31 O2          0.5240   -0.4555    2.5844 O.2       1 <0>        -0.6131
     32 O3         -2.5906   -3.7967    4.6561 O.2       1 <0>        -0.6576
     33 O4         -3.7019   -1.6181    4.0705 O.2       1 <0>        -0.6482
     34 O5          4.3885   -3.9048    2.7464 O.3       1 <0>        -0.6303
     35 S1         -2.5018   -2.3799    4.3583 S.o2      1 <0>         1.5193
     36 H1         -0.1935   -2.4863    8.6241 H         1 <0>         0.1426
     37 H2          0.1168   -0.0386    8.7590 H         1 <0>         0.1398
     38 H3         -1.3546   -3.4839    6.6632 H         1 <0>         0.1599
     39 H4         -1.4443    2.2564    7.6493 H         1 <0>         0.0574
     40 H5          0.3029    2.0794    7.4083 H         1 <0>         0.0629
     41 H6          3.4643    0.4595    6.4257 H         1 <0>         0.0614
     42 H7          2.1893   -0.7290    6.6997 H         1 <0>         0.0593
     43 H8          2.6805   -3.2276    6.1882 H         1 <0>         0.0841
     44 H9          4.2439   -3.6714    5.5123 H         1 <0>         0.0679
     45 H10         1.7550    0.5058    4.6255 H         1 <0>         0.0826
     46 H11         3.3431    0.0962    3.9827 H         1 <0>         0.0383
     47 H12        -2.9433    2.3470    5.4389 H         1 <0>         0.0556
     48 H13        -2.1184    2.4959    3.8856 H         1 <0>         0.0415
     49 H14         2.3173   -3.5850    3.8636 H         1 <0>         0.0851
     50 H15         0.0923    2.2358    4.9947 H         1 <0>         0.0639
     51 H16         4.9487   -1.2974    5.4988 H         1 <0>         0.0584
     52 H17        -0.6000    4.5176    4.7555 H         1 <0>         0.0401
     53 H18        -1.7312    4.4037    6.1178 H         1 <0>         0.0440
     54 H19         0.0183    4.3685    6.4117 H         1 <0>         0.0459
     55 H20         4.4326   -2.8615    7.8238 H         1 <0>         0.0456
     56 H21         5.6267   -1.5650    7.6207 H         1 <0>         0.0366
     57 H22         4.0032   -1.1886    8.2295 H         1 <0>         0.0474
     58 H23        -0.4002   -5.3741    2.9994 H         1 <0>         0.0800
     59 H24        -1.6035   -4.5964    1.9658 H         1 <0>         0.0681
     60 H25         0.1357   -3.0322    1.0943 H         1 <0>         0.0740
     61 H26         1.3654   -3.8328    2.0643 H         1 <0>         0.0631
     62 H27        -0.3350   -5.3004   -0.0711 H         1 <0>         0.0970
     63 H28        -0.8024   -6.6822    0.9336 H         1 <0>         0.0725
     64 H29         0.1003   -3.1895    4.1787 H         1 <0>         0.0839
     65 H30        -2.5847    0.1629    4.0147 H         1 <0>         0.4531
     66 H31         3.6785   -7.2150    1.2691 H         1 <0>         0.4798
     67 H32         3.2344   -8.5378    2.3016 H         1 <0>         0.4881
     68 H33        -0.3190   -7.8132    2.3888 H         1 <0>         0.4801
     69 H34         0.9286   -8.8877    2.9518 H         1 <0>         0.4806
     70 H35         1.9332   -5.6921    0.4720 H         1 <0>         0.4689
     71 H36        -1.4850   -1.3266    2.4871 H         1 <0>         0.4505
     72 H37         5.1292   -3.9010    2.1032 H         1 <0>         0.4443
@<TRIPOS>BOND
     1    1    2 ar
     2    1    3 ar
     3    2    4 ar
     4    3    6 ar
     5    4    5 ar
     6    4   10 1
     7    5    6 ar
     8    5   24 1
     9    6   35 1
    10    7   15 1
    11    7   30 2
    12    7   34 1
    13    8   23 1
    14    8   25 am
    15    8   31 2
    16    9   26 1
    17    9   27 1
    18    9   28 1
    19   10   16 1
    20   11   13 1
    21   11   17 1
    22   12   15 1
    23   12   17 1
    24   13   25 1
    25   14   16 1
    26   14   24 1
    27   15   25 1
    28   16   18 1
    29   17   19 1
    30   20   21 1
    31   20   22 1
    32   21   23 1
    33   22   28 1
    34   23   29 1
    35   29   35 1
    36   32   35 2
    37   33   35 2
    38    1   36 1
    39    2   37 1
    40    3   38 1
    41   10   39 1
    42   10   40 1
    43   11   41 1
    44   11   42 1
    45   12   43 1
    46   12   44 1
    47   13   45 1
    48   13   46 1
    49   14   47 1
    50   14   48 1
    51   15   49 1
    52   16   50 1
    53   17   51 1
    54   18   52 1
    55   18   53 1
    56   18   54 1
    57   19   55 1
    58   19   56 1
    59   19   57 1
    60   20   58 1
    61   20   59 1
    62   21   60 1
    63   21   61 1
    64   22   62 1
    65   22   63 1
    66   23   64 1
    67   24   65 1
    68   26   66 1
    69   26   67 1
    70   27   68 1
    71   27   69 1
    72   28   70 1
    73   29   71 1
    74   34   72 1
@<TRIPOS>MOLECULE
1dwc_ligand_14
   72    74     0     0     0
SMALL
USER_CHARGES

mmff94s_NoEstat = 73.22
@<TRIPOS>ATOM
      1 C1         -0.1021   -7.1683    0.7355 C.ar      1 <0>        -0.1945
      2 C2         -0.5792   -8.1239    1.6301 C.ar      1 <0>        -0.0294
      3 C3          0.6637   -6.1037    1.2012 C.ar      1 <0>        -0.0143
      4 C4         -0.2955   -8.0178    2.9994 C.ar      1 <0>        -0.1552
      5 C5          0.5031   -6.9592    3.4747 C.ar      1 <0>         0.3076
      6 C6          0.9609   -5.9987    2.5610 C.ar      1 <0>        -0.4908
      7 C7         -1.4628    0.1636    1.3526 C.2       1 <0>         0.5994
      8 C8          0.8654   -1.4427    3.2413 C.2       1 <0>         0.6462
      9 C9         -4.4840   -2.7250    6.8178 C.cat     1 <0>         0.6305
     10 C10        -0.8145   -9.0679    3.9520 C.3       1 <0>        -0.0319
     11 C11         2.1918    0.8805    0.7195 C.3       1 <0>        -0.0918
     12 C12         0.2821   -0.3679   -0.3105 C.3       1 <0>        -0.0841
     13 C13         1.6113    0.6116    2.1020 C.3       1 <0>         0.0870
     14 C14         0.4940   -7.9005    5.7515 C.3       1 <0>         0.2023
     15 C15        -0.2506   -0.7126    1.0828 C.3       1 <0>         0.0778
     16 C16        -0.8357   -8.5817    5.4103 C.3       1 <0>        -0.0746
     17 C17         1.0859    0.9390   -0.3376 C.3       1 <0>        -0.0681
     18 C18        -2.0342   -7.6681    5.6911 C.3       1 <0>        -0.0944
     19 C19         1.6740    1.1859   -1.7255 C.3       1 <0>        -0.0918
     20 C20        -2.2331   -3.6727    3.9110 C.3       1 <0>        -0.1192
     21 C21        -1.3133   -2.4479    3.9716 C.3       1 <0>        -0.0916
     22 C22        -3.5726   -3.4201    4.5920 C.3       1 <0>         0.1883
     23 C23        -0.0078   -2.6730    3.2260 C.3       1 <0>         0.1952
     24 N1          0.7943   -6.8242    4.8264 N.pl3     1 <0>        -0.7670
     25 N2          0.7744   -0.5925    2.1333 N.am      1 <0>        -0.4509
     26 N3         -4.2969   -2.3866    8.1540 N.pl3     1 <0>        -0.8477
     27 N4         -5.7720   -2.7293    6.2935 N.pl3     1 <0>        -0.8633
     28 N5         -3.4050   -3.0601    5.9927 N.pl3     1 <0>        -0.7419
     29 N6          0.7961   -3.6905    3.9267 N.pl3     1 <0>        -0.8860
     30 O1         -1.4385    1.2323    1.9447 O.2       1 <0>        -0.5199
     31 O2          1.6103   -1.2468    4.2054 O.2       1 <0>        -0.6131
     32 O3          2.9489   -5.1033    3.9827 O.2       1 <0>        -0.6576
     33 O4          2.3147   -3.9087    1.8626 O.2       1 <0>        -0.6482
     34 O5         -2.5854   -0.4037    0.8474 O.3       1 <0>        -0.6303
     35 S1          1.9328   -4.6215    3.0666 S.o2      1 <0>         1.5193
     36 H1         -0.3304   -7.2521   -0.3236 H         1 <0>         0.1426
     37 H2         -1.1793   -8.9508    1.2577 H         1 <0>         0.1398
     38 H3          1.0358   -5.3499    0.5144 H         1 <0>         0.1599
     39 H4         -1.8224   -9.3834    3.6556 H         1 <0>         0.0574
     40 H5         -0.1575   -9.9435    3.8733 H         1 <0>         0.0629
     41 H6          2.7495    1.8244    0.7335 H         1 <0>         0.0614
     42 H7          2.9066    0.0878    0.4640 H         1 <0>         0.0593
     43 H8          0.9336   -1.1873   -0.6438 H         1 <0>         0.0841
     44 H9         -0.5414   -0.3095   -1.0336 H         1 <0>         0.0679
     45 H10         2.4269    0.5309    2.8282 H         1 <0>         0.0826
     46 H11         0.9807    1.4504    2.4206 H         1 <0>         0.0383
     47 H12         0.4682   -7.5028    6.7722 H         1 <0>         0.0556
     48 H13         1.3063   -8.6368    5.7145 H         1 <0>         0.0415
     49 H14        -0.6325   -1.7382    1.0612 H         1 <0>         0.0851
     50 H15        -0.9553   -9.4568    6.0608 H         1 <0>         0.0639
     51 H16         0.4173    1.7778   -0.1080 H         1 <0>         0.0584
     52 H17        -2.5659   -7.4356    4.7636 H         1 <0>         0.0401
     53 H18        -2.7347   -8.1530    6.3776 H         1 <0>         0.0440
     54 H19        -1.7034   -6.7283    6.1433 H         1 <0>         0.0459
     55 H20         1.1081    0.6390   -2.4855 H         1 <0>         0.0456
     56 H21         1.6425    2.2512   -1.9725 H         1 <0>         0.0366
     57 H22         2.7156    0.8534   -1.7662 H         1 <0>         0.0474
     58 H23        -2.4032   -3.9506    2.8639 H         1 <0>         0.0800
     59 H24        -1.7473   -4.5245    4.4007 H         1 <0>         0.0681
     60 H25        -1.1204   -2.1894    5.0211 H         1 <0>         0.0740
     61 H26        -1.8263   -1.5854    3.5275 H         1 <0>         0.0631
     62 H27        -4.2160   -4.3041    4.5394 H         1 <0>         0.0970
     63 H28        -4.0927   -2.5931    4.0984 H         1 <0>         0.0725
     64 H29        -0.1638   -2.9774    2.1921 H         1 <0>         0.0839
     65 H30         1.4333   -6.0909    5.1082 H         1 <0>         0.4531
     66 H31        -3.3744   -2.3719    8.5807 H         1 <0>         0.4798
     67 H32        -5.0872   -2.1448    8.7473 H         1 <0>         0.4881
     68 H33        -5.9446   -2.9718    5.3209 H         1 <0>         0.4801
     69 H34        -6.5756   -2.4889    6.8690 H         1 <0>         0.4806
     70 H35        -2.4715   -3.0479    6.4062 H         1 <0>         0.4689
     71 H36         0.9382   -3.5340    4.9302 H         1 <0>         0.4505
     72 H37        -3.3805    0.1466    1.0133 H         1 <0>         0.4443
@<TRIPOS>BOND
     1    1    2 ar
     2    1    3 ar
     3    2    4 ar
     4    3    6 ar
     5    4    5 ar
     6    4   10 1
     7    5    6 ar
     8    5   24 1
     9    6   35 1
    10    7   15 1
    11    7   30 2
    12    7   34 1
    13    8   23 1
    14    8   25 am
    15    8   31 2
    16    9   26 1
    17    9   27 1
    18    9   28 1
    19   10   16 1
    20   11   13 1
    21   11   17 1
    22   12   15 1
    23   12   17 1
    24   13   25 1
    25   14   16 1
    26   14   24 1
    27   15   25 1
    28   16   18 1
    29   17   19 1
    30   20   21 1
    31   20   22 1
    32   21   23 1
    33   22   28 1
    34   23   29 1
    35   29   35 1
    36   32   35 2
    37   33   35 2
    38    1   36 1
    39    2   37 1
    40    3   38 1
    41   10   39 1
    42   10   40 1
    43   11   41 1
    44   11   42 1
    45   12   43 1
    46   12   44 1
    47   13   45 1
    48   13   46 1
    49   14   47 1
    50   14   48 1
    51   15   49 1
    52   16   50 1
    53   17   51 1
    54   18   52 1
    55   18   53 1
    56   18   54 1
    57   19   55 1
    58   19   56 1
    59   19   57 1
    60   20   58 1
    61   20   59 1
    62   21   60 1
    63   21   61 1
    64   22   62 1
    65   22   63 1
    66   23   64 1
    67   24   65 1
    68   26   66 1
    69   26   67 1
    70   27   68 1
    71   27   69 1
    72   28   70 1
    73   29   71 1
    74   34   72 1
@<TRIPOS>MOLECULE
1dwc_ligand_15
   72    74     0     0     0
SMALL
USER_CHARGES

mmff94s_NoEstat = 73.55
@<TRIPOS>ATOM
      1 C1         -0.5523    1.6744    5.9041 C.ar      1 <0>        -0.1945
      2 C2         -0.9694    2.6552    5.0066 C.ar      1 <0>        -0.0294
      3 C3         -0.9569    0.3546    5.7269 C.ar      1 <0>        -0.0143
      4 C4         -1.7923    2.3195    3.9220 C.ar      1 <0>        -0.1552
      5 C5         -2.2299    0.9909    3.7521 C.ar      1 <0>         0.3076
      6 C6         -1.7869    0.0155    4.6571 C.ar      1 <0>        -0.4908
      7 C7          3.5686   -3.4379    3.7704 C.2       1 <0>         0.5994
      8 C8          0.8654   -1.4427    3.2413 C.2       1 <0>         0.6462
      9 C9          1.4604   -6.7192    4.6765 C.cat     1 <0>         0.6305
     10 C10        -2.2407    3.3967    2.9635 C.3       1 <0>        -0.0319
     11 C11         3.4440   -0.0674    5.4719 C.3       1 <0>        -0.0918
     12 C12         3.1682   -2.4952    6.0163 C.3       1 <0>        -0.0841
     13 C13         2.9000   -0.3276    4.0730 C.3       1 <0>         0.0870
     14 C14        -3.6561    1.6489    1.8554 C.3       1 <0>         0.2023
     15 C15         2.5392   -2.7371    4.6417 C.3       1 <0>         0.0778
     16 C16        -2.6763    2.8021    1.6150 C.3       1 <0>        -0.0746
     17 C17         4.1435   -1.3104    6.0281 C.3       1 <0>        -0.0681
     18 C18        -3.2993    3.8738    0.7246 C.3       1 <0>        -0.0944
     19 C19         4.6673   -1.0527    7.4396 C.3       1 <0>        -0.0918
     20 C20        -0.5404   -4.8511    2.0458 C.3       1 <0>        -0.1192
     21 C21         0.3004   -3.5693    2.0376 C.3       1 <0>        -0.0916
     22 C22        -0.3597   -5.6492    3.3311 C.3       1 <0>         0.1883
     23 C23        -0.0078   -2.6730    3.2260 C.3       1 <0>         0.1952
     24 N1         -3.0449    0.6290    2.6865 N.pl3     1 <0>        -0.7670
     25 N2          2.0252   -1.5038    4.0223 N.am      1 <0>        -0.4509
     26 N3          2.7946   -7.0727    4.8490 N.pl3     1 <0>        -0.8477
     27 N4          0.5364   -7.0602    5.6583 N.pl3     1 <0>        -0.8633
     28 N5          1.0303   -6.0293    3.5380 N.pl3     1 <0>        -0.7419
     29 N6         -1.3760   -2.1385    3.1042 N.pl3     1 <0>        -0.8860
     30 O1          4.1316   -4.4849    4.0536 O.2       1 <0>        -0.5199
     31 O2          0.5240   -0.4555    2.5844 O.2       1 <0>        -0.6131
     32 O3         -1.7140   -2.3916    5.6449 O.2       1 <0>        -0.6576
     33 O4         -3.6601   -1.7094    4.2056 O.2       1 <0>        -0.6482
     34 O5          3.7837   -2.7404    2.6283 O.3       1 <0>        -0.6303
     35 S1         -2.2397   -1.6774    4.4970 S.o2      1 <0>         1.5193
     36 H1          0.0908    1.9391    6.7389 H         1 <0>         0.1426
     37 H2         -0.6459    3.6833    5.1512 H         1 <0>         0.1398
     38 H3         -0.6333   -0.4189    6.4161 H         1 <0>         0.1599
     39 H4         -3.0724    3.9441    3.4249 H         1 <0>         0.0574
     40 H5         -1.4243    4.1094    2.7937 H         1 <0>         0.0629
     41 H6          4.1435    0.7764    5.4419 H         1 <0>         0.0614
     42 H7          2.6191    0.2214    6.1357 H         1 <0>         0.0593
     43 H8          2.3618   -2.2928    6.7345 H         1 <0>         0.0841
     44 H9          3.6813   -3.3988    6.3690 H         1 <0>         0.0679
     45 H10         2.3679    0.5618    3.7197 H         1 <0>         0.0826
     46 H11         3.7232   -0.5081    3.3711 H         1 <0>         0.0383
     47 H12        -4.5696    2.0142    2.3409 H         1 <0>         0.0556
     48 H13        -3.9536    1.1996    0.9014 H         1 <0>         0.0415
     49 H14         1.7211   -3.4548    4.7590 H         1 <0>         0.0851
     50 H15        -1.7894    2.4087    1.1001 H         1 <0>         0.0639
     51 H16         5.0063   -1.5479    5.3937 H         1 <0>         0.0584
     52 H17        -3.3831    3.5161   -0.3060 H         1 <0>         0.0401
     53 H18        -4.3001    4.1356    1.0809 H         1 <0>         0.0440
     54 H19        -2.6852    4.7793    0.7260 H         1 <0>         0.0459
     55 H20         4.2777   -1.8006    8.1367 H         1 <0>         0.0456
     56 H21         5.7602   -1.1000    7.4588 H         1 <0>         0.0366
     57 H22         4.3590   -0.0627    7.7891 H         1 <0>         0.0474
     58 H23        -1.5993   -4.5943    1.9218 H         1 <0>         0.0800
     59 H24        -0.2563   -5.4850    1.1980 H         1 <0>         0.0681
     60 H25         0.1357   -3.0322    1.0943 H         1 <0>         0.0740
     61 H26         1.3654   -3.8328    2.0643 H         1 <0>         0.0631
     62 H27        -0.9667   -6.5601    3.3198 H         1 <0>         0.0970
     63 H28        -0.6690   -5.0471    4.1914 H         1 <0>         0.0725
     64 H29         0.1003   -3.1895    4.1787 H         1 <0>         0.0839
     65 H30        -3.3945   -0.3205    2.6487 H         1 <0>         0.4531
     66 H31         3.5044   -6.8463    4.1574 H         1 <0>         0.4798
     67 H32         3.0989   -7.5750    5.6798 H         1 <0>         0.4881
     68 H33        -0.4468   -6.8174    5.5641 H         1 <0>         0.4801
     69 H34         0.8200   -7.5607    6.4972 H         1 <0>         0.4806
     70 H35         1.7319   -5.7928    2.8348 H         1 <0>         0.4689
     71 H36        -1.6042   -1.6955    2.2078 H         1 <0>         0.4505
     72 H37         4.4476   -3.1762    2.0524 H         1 <0>         0.4443
@<TRIPOS>BOND
     1    1    2 ar
     2    1    3 ar
     3    2    4 ar
     4    3    6 ar
     5    4    5 ar
     6    4   10 1
     7    5    6 ar
     8    5   24 1
     9    6   35 1
    10    7   15 1
    11    7   30 2
    12    7   34 1
    13    8   23 1
    14    8   25 am
    15    8   31 2
    16    9   26 1
    17    9   27 1
    18    9   28 1
    19   10   16 1
    20   11   13 1
    21   11   17 1
    22   12   15 1
    23   12   17 1
    24   13   25 1
    25   14   16 1
    26   14   24 1
    27   15   25 1
    28   16   18 1
    29   17   19 1
    30   20   21 1
    31   20   22 1
    32   21   23 1
    33   22   28 1
    34   23   29 1
    35   29   35 1
    36   32   35 2
    37   33   35 2
    38    1   36 1
    39    2   37 1
    40    3   38 1
    41   10   39 1
    42   10   40 1
    43   11   41 1
    44   11   42 1
    45   12   43 1
    46   12   44 1
    47   13   45 1
    48   13   46 1
    49   14   47 1
    50   14   48 1
    51   15   49 1
    52   16   50 1
    53   17   51 1
    54   18   52 1
    55   18   53 1
    56   18   54 1
    57   19   55 1
    58   19   56 1
    59   19   57 1
    60   20   58 1
    61   20   59 1
    62   21   60 1
    63   21   61 1
    64   22   62 1
    65   22   63 1
    66   23   64 1
    67   24   65 1
    68   26   66 1
    69   26   67 1
    70   27   68 1
    71   27   69 1
    72   28   70 1
    73   29   71 1
    74   34   72 1
@<TRIPOS>MOLECULE
1dwc_ligand_16
   72    74     0     0     0
SMALL
USER_CHARGES

mmff94s_NoEstat = 73.60
@<TRIPOS>ATOM
      1 C1         -0.5523    1.6744    5.9041 C.ar      1 <0>        -0.1945
      2 C2         -0.9694    2.6552    5.0066 C.ar      1 <0>        -0.0294
      3 C3         -0.9569    0.3546    5.7269 C.ar      1 <0>        -0.0143
      4 C4         -1.7923    2.3195    3.9220 C.ar      1 <0>        -0.1552
      5 C5         -2.2299    0.9909    3.7521 C.ar      1 <0>         0.3076
      6 C6         -1.7869    0.0155    4.6571 C.ar      1 <0>        -0.4908
      7 C7          3.5686   -3.4379    3.7704 C.2       1 <0>         0.5994
      8 C8          0.8654   -1.4427    3.2413 C.2       1 <0>         0.6462
      9 C9         -0.0382   -5.7761   -1.6019 C.cat     1 <0>         0.6305
     10 C10        -2.2407    3.3967    2.9635 C.3       1 <0>        -0.0319
     11 C11         3.4440   -0.0674    5.4719 C.3       1 <0>        -0.0918
     12 C12         3.1682   -2.4952    6.0163 C.3       1 <0>        -0.0841
     13 C13         2.9000   -0.3276    4.0730 C.3       1 <0>         0.0870
     14 C14        -3.6561    1.6489    1.8554 C.3       1 <0>         0.2023
     15 C15         2.5392   -2.7371    4.6417 C.3       1 <0>         0.0778
     16 C16        -2.6763    2.8021    1.6150 C.3       1 <0>        -0.0746
     17 C17         4.1435   -1.3104    6.0281 C.3       1 <0>        -0.0681
     18 C18        -3.2993    3.8738    0.7246 C.3       1 <0>        -0.0944
     19 C19         4.6673   -1.0527    7.4396 C.3       1 <0>        -0.0918
     20 C20        -0.5404   -4.8511    2.0458 C.3       1 <0>        -0.1192
     21 C21         0.3004   -3.5693    2.0376 C.3       1 <0>        -0.0916
     22 C22        -0.1768   -5.7847    0.8978 C.3       1 <0>         0.1883
     23 C23        -0.0078   -2.6730    3.2260 C.3       1 <0>         0.1952
     24 N1         -3.0449    0.6290    2.6865 N.pl3     1 <0>        -0.7670
     25 N2          2.0252   -1.5038    4.0223 N.am      1 <0>        -0.4509
     26 N3         -0.2239   -5.1414   -2.8257 N.pl3     1 <0>        -0.8477
     27 N4          0.4773   -7.0675   -1.5794 N.pl3     1 <0>        -0.8633
     28 N5         -0.3589   -5.1430   -0.3963 N.pl3     1 <0>        -0.7419
     29 N6         -1.3760   -2.1385    3.1042 N.pl3     1 <0>        -0.8860
     30 O1          3.9563   -3.0382    2.6827 O.2       1 <0>        -0.5199
     31 O2          0.5240   -0.4555    2.5844 O.2       1 <0>        -0.6131
     32 O3         -1.7140   -2.3916    5.6449 O.2       1 <0>        -0.6576
     33 O4         -3.6601   -1.7094    4.2056 O.2       1 <0>        -0.6482
     34 O5          4.0020   -4.5770    4.3637 O.3       1 <0>        -0.6303
     35 S1         -2.2397   -1.6774    4.4970 S.o2      1 <0>         1.5193
     36 H1          0.0908    1.9391    6.7389 H         1 <0>         0.1426
     37 H2         -0.6459    3.6833    5.1512 H         1 <0>         0.1398
     38 H3         -0.6333   -0.4189    6.4161 H         1 <0>         0.1599
     39 H4         -3.0724    3.9441    3.4249 H         1 <0>         0.0574
     40 H5         -1.4243    4.1094    2.7937 H         1 <0>         0.0629
     41 H6          4.1435    0.7764    5.4419 H         1 <0>         0.0614
     42 H7          2.6191    0.2214    6.1357 H         1 <0>         0.0593
     43 H8          2.3618   -2.2928    6.7345 H         1 <0>         0.0841
     44 H9          3.6813   -3.3988    6.3690 H         1 <0>         0.0679
     45 H10         2.3679    0.5618    3.7197 H         1 <0>         0.0826
     46 H11         3.7232   -0.5081    3.3711 H         1 <0>         0.0383
     47 H12        -4.5696    2.0142    2.3409 H         1 <0>         0.0556
     48 H13        -3.9536    1.1996    0.9014 H         1 <0>         0.0415
     49 H14         1.7211   -3.4548    4.7590 H         1 <0>         0.0851
     50 H15        -1.7894    2.4087    1.1001 H         1 <0>         0.0639
     51 H16         5.0063   -1.5479    5.3937 H         1 <0>         0.0584
     52 H17        -3.3831    3.5161   -0.3060 H         1 <0>         0.0401
     53 H18        -4.3001    4.1356    1.0809 H         1 <0>         0.0440
     54 H19        -2.6852    4.7793    0.7260 H         1 <0>         0.0459
     55 H20         4.2777   -1.8006    8.1367 H         1 <0>         0.0456
     56 H21         5.7602   -1.1000    7.4588 H         1 <0>         0.0366
     57 H22         4.3590   -0.0627    7.7891 H         1 <0>         0.0474
     58 H23        -0.4002   -5.3741    2.9994 H         1 <0>         0.0800
     59 H24        -1.6035   -4.5964    1.9658 H         1 <0>         0.0681
     60 H25         0.1357   -3.0322    1.0943 H         1 <0>         0.0740
     61 H26         1.3654   -3.8328    2.0643 H         1 <0>         0.0631
     62 H27        -0.7862   -6.6937    0.9190 H         1 <0>         0.0970
     63 H28         0.8744   -6.0800    0.9749 H         1 <0>         0.0725
     64 H29         0.1003   -3.1895    4.1787 H         1 <0>         0.0839
     65 H30        -3.3945   -0.3205    2.6487 H         1 <0>         0.4531
     66 H31        -0.5995   -4.1991   -2.8910 H         1 <0>         0.4798
     67 H32         0.0114   -5.6094   -3.6979 H         1 <0>         0.4881
     68 H33         0.6256   -7.5607   -0.7023 H         1 <0>         0.4801
     69 H34         0.7207   -7.5524   -2.4398 H         1 <0>         0.4806
     70 H35        -0.7354   -4.1951   -0.4451 H         1 <0>         0.4689
     71 H36        -1.6042   -1.6955    2.2078 H         1 <0>         0.4505
     72 H37         4.6667   -5.0457    3.8153 H         1 <0>         0.4443
@<TRIPOS>BOND
     1    1    2 ar
     2    1    3 ar
     3    2    4 ar
     4    3    6 ar
     5    4    5 ar
     6    4   10 1
     7    5    6 ar
     8    5   24 1
     9    6   35 1
    10    7   15 1
    11    7   30 2
    12    7   34 1
    13    8   23 1
    14    8   25 am
    15    8   31 2
    16    9   26 1
    17    9   27 1
    18    9   28 1
    19   10   16 1
    20   11   13 1
    21   11   17 1
    22   12   15 1
    23   12   17 1
    24   13   25 1
    25   14   16 1
    26   14   24 1
    27   15   25 1
    28   16   18 1
    29   17   19 1
    30   20   21 1
    31   20   22 1
    32   21   23 1
    33   22   28 1
    34   23   29 1
    35   29   35 1
    36   32   35 2
    37   33   35 2
    38    1   36 1
    39    2   37 1
    40    3   38 1
    41   10   39 1
    42   10   40 1
    43   11   41 1
    44   11   42 1
    45   12   43 1
    46   12   44 1
    47   13   45 1
    48   13   46 1
    49   14   47 1
    50   14   48 1
    51   15   49 1
    52   16   50 1
    53   17   51 1
    54   18   52 1
    55   18   53 1
    56   18   54 1
    57   19   55 1
    58   19   56 1
    59   19   57 1
    60   20   58 1
    61   20   59 1
    62   21   60 1
    63   21   61 1
    64   22   62 1
    65   22   63 1
    66   23   64 1
    67   24   65 1
    68   26   66 1
    69   26   67 1
    70   27   68 1
    71   27   69 1
    72   28   70 1
    73   29   71 1
    74   34   72 1
@<TRIPOS>MOLECULE
1dwc_ligand_17
   72    74     0     0     0
SMALL
USER_CHARGES

mmff94s_NoEstat = 73.65
@<TRIPOS>ATOM
      1 C1         -1.3760   -0.0831    7.4437 C.ar      1 <0>        -0.1945
      2 C2         -1.7166    1.2052    7.0370 C.ar      1 <0>        -0.0294
      3 C3         -1.6287   -1.1649    6.6053 C.ar      1 <0>        -0.0143
      4 C4         -2.3098    1.4195    5.7846 C.ar      1 <0>        -0.1552
      5 C5         -2.5954    0.3267    4.9421 C.ar      1 <0>         0.3076
      6 C6         -2.2310   -0.9605    5.3628 C.ar      1 <0>        -0.4908
      7 C7          3.5686   -3.4379    3.7704 C.2       1 <0>         0.5994
      8 C8          0.8654   -1.4427    3.2413 C.2       1 <0>         0.6462
      9 C9         -0.8941   -7.9715   -0.0876 C.cat     1 <0>         0.6305
     10 C10        -2.6790    2.8217    5.3633 C.3       1 <0>        -0.0319
     11 C11         3.4440   -0.0674    5.4719 C.3       1 <0>        -0.0918
     12 C12         3.1682   -2.4952    6.0163 C.3       1 <0>        -0.0841
     13 C13         2.9000   -0.3276    4.0730 C.3       1 <0>         0.0870
     14 C14        -3.7276    1.8014    3.3273 C.3       1 <0>         0.2023
     15 C15         2.5392   -2.7371    4.6417 C.3       1 <0>         0.0778
     16 C16        -2.8246    2.9293    3.8373 C.3       1 <0>        -0.0746
     17 C17         4.1435   -1.3104    6.0281 C.3       1 <0>        -0.0681
     18 C18        -3.3763    4.2954    3.4390 C.3       1 <0>        -0.0944
     19 C19         4.6673   -1.0527    7.4396 C.3       1 <0>        -0.0918
     20 C20        -0.5404   -4.8511    2.0458 C.3       1 <0>        -0.1192
     21 C21         0.3004   -3.5693    2.0376 C.3       1 <0>        -0.0916
     22 C22        -0.1768   -5.7847    0.8978 C.3       1 <0>         0.1883
     23 C23        -0.0078   -2.6730    3.2260 C.3       1 <0>         0.1952
     24 N1         -3.1817    0.5088    3.6957 N.pl3     1 <0>        -0.7670
     25 N2          2.0252   -1.5038    4.0223 N.am      1 <0>        -0.4509
     26 N3         -1.6898   -9.1122   -0.0609 N.pl3     1 <0>        -0.8477
     27 N4          0.0239   -7.8094   -1.1196 N.pl3     1 <0>        -0.8633
     28 N5         -0.9984   -6.9865    0.9003 N.pl3     1 <0>        -0.7419
     29 N6         -1.3760   -2.1385    3.1042 N.pl3     1 <0>        -0.8860
     30 O1          4.3335   -2.8779    2.9993 O.2       1 <0>        -0.5199
     31 O2          0.5240   -0.4555    2.5844 O.2       1 <0>        -0.6131
     32 O3         -2.1204   -3.5503    5.1256 O.2       1 <0>        -0.6576
     33 O4         -3.8433   -2.2664    3.8188 O.2       1 <0>        -0.6482
     34 O5          3.5241   -4.7791    3.9616 O.3       1 <0>        -0.6303
     35 S1         -2.5018   -2.3799    4.3583 S.o2      1 <0>         1.5193
     36 H1         -0.9105   -0.2425    8.4124 H         1 <0>         0.1426
     37 H2         -1.5128    2.0448    7.6973 H         1 <0>         0.1398
     38 H3         -1.3622   -2.1723    6.9089 H         1 <0>         0.1599
     39 H4         -3.6215    3.0926    5.8559 H         1 <0>         0.0574
     40 H5         -1.9103    3.5280    5.7005 H         1 <0>         0.0629
     41 H6          4.1435    0.7764    5.4419 H         1 <0>         0.0614
     42 H7          2.6191    0.2214    6.1357 H         1 <0>         0.0593
     43 H8          2.3618   -2.2928    6.7345 H         1 <0>         0.0841
     44 H9          3.6813   -3.3988    6.3690 H         1 <0>         0.0679
     45 H10         2.3679    0.5618    3.7197 H         1 <0>         0.0826
     46 H11         3.7232   -0.5081    3.3711 H         1 <0>         0.0383
     47 H12        -4.7388    1.9004    3.7412 H         1 <0>         0.0556
     48 H13        -3.8175    1.8521    2.2365 H         1 <0>         0.0415
     49 H14         1.7211   -3.4548    4.7590 H         1 <0>         0.0851
     50 H15        -1.8320    2.8194    3.3797 H         1 <0>         0.0639
     51 H16         5.0063   -1.5479    5.3937 H         1 <0>         0.0584
     52 H17        -3.2514    4.4622    2.3649 H         1 <0>         0.0401
     53 H18        -4.4422    4.3638    3.6766 H         1 <0>         0.0440
     54 H19        -2.8521    5.0926    3.9745 H         1 <0>         0.0459
     55 H20         4.2777   -1.8006    8.1367 H         1 <0>         0.0456
     56 H21         5.7602   -1.1000    7.4588 H         1 <0>         0.0366
     57 H22         4.3590   -0.0627    7.7891 H         1 <0>         0.0474
     58 H23        -0.4002   -5.3741    2.9994 H         1 <0>         0.0800
     59 H24        -1.6035   -4.5964    1.9658 H         1 <0>         0.0681
     60 H25         0.1357   -3.0322    1.0943 H         1 <0>         0.0740
     61 H26         1.3654   -3.8328    2.0643 H         1 <0>         0.0631
     62 H27         0.8739   -6.0869    0.9513 H         1 <0>         0.0970
     63 H28        -0.3350   -5.2785   -0.0598 H         1 <0>         0.0725
     64 H29         0.1003   -3.1895    4.1787 H         1 <0>         0.0839
     65 H30        -3.4363   -0.3112    3.1590 H         1 <0>         0.4531
     66 H31        -2.3726   -9.2741    0.6745 H         1 <0>         0.4798
     67 H32        -1.6070   -9.8240   -0.7830 H         1 <0>         0.4881
     68 H33         0.6213   -6.9877   -1.1696 H         1 <0>         0.4801
     69 H34         0.1212   -8.5082   -1.8524 H         1 <0>         0.4806
     70 H35        -1.6814   -7.1337    1.6450 H         1 <0>         0.4689
     71 H36        -1.4850   -1.3266    2.4871 H         1 <0>         0.4505
     72 H37         4.1809   -5.2504    3.4059 H         1 <0>         0.4443
@<TRIPOS>BOND
     1    1    2 ar
     2    1    3 ar
     3    2    4 ar
     4    3    6 ar
     5    4    5 ar
     6    4   10 1
     7    5    6 ar
     8    5   24 1
     9    6   35 1
    10    7   15 1
    11    7   30 2
    12    7   34 1
    13    8   23 1
    14    8   25 am
    15    8   31 2
    16    9   26 1
    17    9   27 1
    18    9   28 1
    19   10   16 1
    20   11   13 1
    21   11   17 1
    22   12   15 1
    23   12   17 1
    24   13   25 1
    25   14   16 1
    26   14   24 1
    27   15   25 1
    28   16   18 1
    29   17   19 1
    30   20   21 1
    31   20   22 1
    32   21   23 1
    33   22   28 1
    34   23   29 1
    35   29   35 1
    36   32   35 2
    37   33   35 2
    38    1   36 1
    39    2   37 1
    40    3   38 1
    41   10   39 1
    42   10   40 1
    43   11   41 1
    44   11   42 1
    45   12   43 1
    46   12   44 1
    47   13   45 1
    48   13   46 1
    49   14   47 1
    50   14   48 1
    51   15   49 1
    52   16   50 1
    53   17   51 1
    54   18   52 1
    55   18   53 1
    56   18   54 1
    57   19   55 1
    58   19   56 1
    59   19   57 1
    60   20   58 1
    61   20   59 1
    62   21   60 1
    63   21   61 1
    64   22   62 1
    65   22   63 1
    66   23   64 1
    67   24   65 1
    68   26   66 1
    69   26   67 1
    70   27   68 1
    71   27   69 1
    72   28   70 1
    73   29   71 1
    74   34   72 1
@<TRIPOS>MOLECULE
1dwc_ligand_18
   72    74     0     0     0
SMALL
USER_CHARGES

mmff94s_NoEstat = 73.67
@<TRIPOS>ATOM
      1 C1         -1.5516   -4.4277    7.3298 C.ar      1 <0>        -0.1945
      2 C2         -2.3348   -5.5104    6.9352 C.ar      1 <0>        -0.0294
      3 C3         -1.5385   -3.2654    6.5644 C.ar      1 <0>        -0.0143
      4 C4         -3.1142   -5.4347    5.7720 C.ar      1 <0>        -0.1552
      5 C5         -3.0840   -4.2723    4.9761 C.ar      1 <0>         0.3076
      6 C6         -2.3015   -3.1877    5.3982 C.ar      1 <0>        -0.4908
      7 C7          3.5686   -3.4379    3.7704 C.2       1 <0>         0.5994
      8 C8          0.8654   -1.4427    3.2413 C.2       1 <0>         0.6462
      9 C9          1.4604   -6.7192    4.6765 C.cat     1 <0>         0.6305
     10 C10        -3.9512   -6.6204    5.3554 C.3       1 <0>        -0.0319
     11 C11         3.4440   -0.0674    5.4719 C.3       1 <0>        -0.0918
     12 C12         3.1682   -2.4952    6.0163 C.3       1 <0>        -0.0841
     13 C13         2.9000   -0.3276    4.0730 C.3       1 <0>         0.0870
     14 C14        -4.5113   -5.3376    3.2753 C.3       1 <0>         0.2023
     15 C15         2.5392   -2.7371    4.6417 C.3       1 <0>         0.0778
     16 C16        -5.0831   -6.2018    4.4040 C.3       1 <0>        -0.0746
     17 C17         4.1435   -1.3104    6.0281 C.3       1 <0>        -0.0681
     18 C18        -5.8039   -7.4257    3.8454 C.3       1 <0>        -0.0944
     19 C19         4.6673   -1.0527    7.4396 C.3       1 <0>        -0.0918
     20 C20        -0.5404   -4.8511    2.0458 C.3       1 <0>        -0.1192
     21 C21         0.3004   -3.5693    2.0376 C.3       1 <0>        -0.0916
     22 C22        -0.3597   -5.6492    3.3311 C.3       1 <0>         0.1883
     23 C23        -0.0078   -2.6730    3.2260 C.3       1 <0>         0.1952
     24 N1         -3.8463   -4.1684    3.8190 N.pl3     1 <0>        -0.7670
     25 N2          2.0252   -1.5038    4.0223 N.am      1 <0>        -0.4509
     26 N3          2.7946   -7.0727    4.8490 N.pl3     1 <0>        -0.8477
     27 N4          0.5364   -7.0602    5.6583 N.pl3     1 <0>        -0.8633
     28 N5          1.0303   -6.0293    3.5380 N.pl3     1 <0>        -0.7419
     29 N6         -1.3760   -2.1385    3.1042 N.pl3     1 <0>        -0.8860
     30 O1          4.1316   -4.4849    4.0536 O.2       1 <0>        -0.5199
     31 O2          0.5240   -0.4555    2.5844 O.2       1 <0>        -0.6131
     32 O3         -3.5960   -1.3232    4.1243 O.2       1 <0>        -0.6576
     33 O4         -1.4314   -0.7555    5.2719 O.2       1 <0>        -0.6482
     34 O5          3.7837   -2.7404    2.6283 O.3       1 <0>        -0.6303
     35 S1         -2.2397   -1.6774    4.4970 S.o2      1 <0>         1.5193
     36 H1         -0.9549   -4.4896    8.2356 H         1 <0>         0.1426
     37 H2         -2.3412   -6.4135    7.5409 H         1 <0>         0.1398
     38 H3         -0.9370   -2.4135    6.8653 H         1 <0>         0.1599
     39 H4         -3.2943   -7.3516    4.8675 H         1 <0>         0.0574
     40 H5         -4.3865   -7.1001    6.2407 H         1 <0>         0.0629
     41 H6          4.1435    0.7764    5.4419 H         1 <0>         0.0614
     42 H7          2.6191    0.2214    6.1357 H         1 <0>         0.0593
     43 H8          2.3618   -2.2928    6.7345 H         1 <0>         0.0841
     44 H9          3.6813   -3.3988    6.3690 H         1 <0>         0.0679
     45 H10         2.3679    0.5618    3.7197 H         1 <0>         0.0826
     46 H11         3.7232   -0.5081    3.3711 H         1 <0>         0.0383
     47 H12        -3.7986   -5.9137    2.6721 H         1 <0>         0.0556
     48 H13        -5.3138   -5.0110    2.6047 H         1 <0>         0.0415
     49 H14         1.7211   -3.4548    4.7590 H         1 <0>         0.0851
     50 H15        -5.8148   -5.6064    4.9667 H         1 <0>         0.0639
     51 H16         5.0063   -1.5479    5.3937 H         1 <0>         0.0584
     52 H17        -6.7464   -7.1341    3.3725 H         1 <0>         0.0401
     53 H18        -5.1841   -7.9286    3.0971 H         1 <0>         0.0440
     54 H19        -6.0259   -8.1390    4.6448 H         1 <0>         0.0459
     55 H20         4.2777   -1.8006    8.1367 H         1 <0>         0.0456
     56 H21         5.7602   -1.1000    7.4588 H         1 <0>         0.0366
     57 H22         4.3590   -0.0627    7.7891 H         1 <0>         0.0474
     58 H23        -1.5993   -4.5943    1.9218 H         1 <0>         0.0800
     59 H24        -0.2563   -5.4850    1.1980 H         1 <0>         0.0681
     60 H25         0.1357   -3.0322    1.0943 H         1 <0>         0.0740
     61 H26         1.3654   -3.8328    2.0643 H         1 <0>         0.0631
     62 H27        -0.9667   -6.5601    3.3198 H         1 <0>         0.0970
     63 H28        -0.6690   -5.0471    4.1914 H         1 <0>         0.0725
     64 H29         0.1003   -3.1895    4.1787 H         1 <0>         0.0839
     65 H30        -3.7341   -3.3447    3.2409 H         1 <0>         0.4531
     66 H31         3.5044   -6.8463    4.1574 H         1 <0>         0.4798
     67 H32         3.0989   -7.5750    5.6798 H         1 <0>         0.4881
     68 H33        -0.4468   -6.8174    5.5641 H         1 <0>         0.4801
     69 H34         0.8200   -7.5607    6.4972 H         1 <0>         0.4806
     70 H35         1.7319   -5.7928    2.8348 H         1 <0>         0.4689
     71 H36        -1.6042   -1.6955    2.2078 H         1 <0>         0.4505
     72 H37         4.4476   -3.1762    2.0524 H         1 <0>         0.4443
@<TRIPOS>BOND
     1    1    2 ar
     2    1    3 ar
     3    2    4 ar
     4    3    6 ar
     5    4    5 ar
     6    4   10 1
     7    5    6 ar
     8    5   24 1
     9    6   35 1
    10    7   15 1
    11    7   30 2
    12    7   34 1
    13    8   23 1
    14    8   25 am
    15    8   31 2
    16    9   26 1
    17    9   27 1
    18    9   28 1
    19   10   16 1
    20   11   13 1
    21   11   17 1
    22   12   15 1
    23   12   17 1
    24   13   25 1
    25   14   16 1
    26   14   24 1
    27   15   25 1
    28   16   18 1
    29   17   19 1
    30   20   21 1
    31   20   22 1
    32   21   23 1
    33   22   28 1
    34   23   29 1
    35   29   35 1
    36   32   35 2
    37   33   35 2
    38    1   36 1
    39    2   37 1
    40    3   38 1
    41   10   39 1
    42   10   40 1
    43   11   41 1
    44   11   42 1
    45   12   43 1
    46   12   44 1
    47   13   45 1
    48   13   46 1
    49   14   47 1
    50   14   48 1
    51   15   49 1
    52   16   50 1
    53   17   51 1
    54   18   52 1
    55   18   53 1
    56   18   54 1
    57   19   55 1
    58   19   56 1
    59   19   57 1
    60   20   58 1
    61   20   59 1
    62   21   60 1
    63   21   61 1
    64   22   62 1
    65   22   63 1
    66   23   64 1
    67   24   65 1
    68   26   66 1
    69   26   67 1
    70   27   68 1
    71   27   69 1
    72   28   70 1
    73   29   71 1
    74   34   72 1
@<TRIPOS>MOLECULE
1dwc_ligand_19
   72    74     0     0     0
SMALL
USER_CHARGES

mmff94s_NoEstat = 74.10
@<TRIPOS>ATOM
      1 C1         -0.5523    1.6744    5.9041 C.ar      1 <0>        -0.1945
      2 C2         -0.9694    2.6552    5.0066 C.ar      1 <0>        -0.0294
      3 C3         -0.9569    0.3546    5.7269 C.ar      1 <0>        -0.0143
      4 C4         -1.7923    2.3195    3.9220 C.ar      1 <0>        -0.1552
      5 C5         -2.2299    0.9909    3.7521 C.ar      1 <0>         0.3076
      6 C6         -1.7869    0.0155    4.6571 C.ar      1 <0>        -0.4908
      7 C7          3.5686   -3.4379    3.7704 C.2       1 <0>         0.5994
      8 C8          0.8654   -1.4427    3.2413 C.2       1 <0>         0.6462
      9 C9         -1.1012   -7.8073    4.3609 C.cat     1 <0>         0.6305
     10 C10        -2.2407    3.3967    2.9635 C.3       1 <0>        -0.0319
     11 C11         3.4440   -0.0674    5.4719 C.3       1 <0>        -0.0918
     12 C12         3.1682   -2.4952    6.0163 C.3       1 <0>        -0.0841
     13 C13         2.9000   -0.3276    4.0730 C.3       1 <0>         0.0870
     14 C14        -3.6561    1.6489    1.8554 C.3       1 <0>         0.2023
     15 C15         2.5392   -2.7371    4.6417 C.3       1 <0>         0.0778
     16 C16        -2.6763    2.8021    1.6150 C.3       1 <0>        -0.0746
     17 C17         4.1435   -1.3104    6.0281 C.3       1 <0>        -0.0681
     18 C18        -3.2993    3.8738    0.7246 C.3       1 <0>        -0.0944
     19 C19         4.6673   -1.0527    7.4396 C.3       1 <0>        -0.0918
     20 C20        -0.5404   -4.8511    2.0458 C.3       1 <0>        -0.1192
     21 C21         0.3004   -3.5693    2.0376 C.3       1 <0>        -0.0916
     22 C22        -0.3597   -5.6492    3.3311 C.3       1 <0>         0.1883
     23 C23        -0.0078   -2.6730    3.2260 C.3       1 <0>         0.1952
     24 N1         -3.0449    0.6290    2.6865 N.pl3     1 <0>        -0.7670
     25 N2          2.0252   -1.5038    4.0223 N.am      1 <0>        -0.4509
     26 N3         -1.8613   -8.9717    4.3243 N.pl3     1 <0>        -0.8477
     27 N4         -0.2834   -7.5659    5.4595 N.pl3     1 <0>        -0.8633
     28 N5         -1.1428   -6.8764    3.3174 N.pl3     1 <0>        -0.7419
     29 N6         -1.3760   -2.1385    3.1042 N.pl3     1 <0>        -0.8860
     30 O1          4.3335   -2.8779    2.9993 O.2       1 <0>        -0.5199
     31 O2          0.5240   -0.4555    2.5844 O.2       1 <0>        -0.6131
     32 O3         -1.7140   -2.3916    5.6449 O.2       1 <0>        -0.6576
     33 O4         -3.6601   -1.7094    4.2056 O.2       1 <0>        -0.6482
     34 O5          3.5241   -4.7791    3.9616 O.3       1 <0>        -0.6303
     35 S1         -2.2397   -1.6774    4.4970 S.o2      1 <0>         1.5193
     36 H1          0.0908    1.9391    6.7389 H         1 <0>         0.1426
     37 H2         -0.6459    3.6833    5.1512 H         1 <0>         0.1398
     38 H3         -0.6333   -0.4189    6.4161 H         1 <0>         0.1599
     39 H4         -3.0724    3.9441    3.4249 H         1 <0>         0.0574
     40 H5         -1.4243    4.1094    2.7937 H         1 <0>         0.0629
     41 H6          4.1435    0.7764    5.4419 H         1 <0>         0.0614
     42 H7          2.6191    0.2214    6.1357 H         1 <0>         0.0593
     43 H8          2.3618   -2.2928    6.7345 H         1 <0>         0.0841
     44 H9          3.6813   -3.3988    6.3690 H         1 <0>         0.0679
     45 H10         2.3679    0.5618    3.7197 H         1 <0>         0.0826
     46 H11         3.7232   -0.5081    3.3711 H         1 <0>         0.0383
     47 H12        -4.5696    2.0142    2.3409 H         1 <0>         0.0556
     48 H13        -3.9536    1.1996    0.9014 H         1 <0>         0.0415
     49 H14         1.7211   -3.4548    4.7590 H         1 <0>         0.0851
     50 H15        -1.7894    2.4087    1.1001 H         1 <0>         0.0639
     51 H16         5.0063   -1.5479    5.3937 H         1 <0>         0.0584
     52 H17        -3.3831    3.5161   -0.3060 H         1 <0>         0.0401
     53 H18        -4.3001    4.1356    1.0809 H         1 <0>         0.0440
     54 H19        -2.6852    4.7793    0.7260 H         1 <0>         0.0459
     55 H20         4.2777   -1.8006    8.1367 H         1 <0>         0.0456
     56 H21         5.7602   -1.1000    7.4588 H         1 <0>         0.0366
     57 H22         4.3590   -0.0627    7.7891 H         1 <0>         0.0474
     58 H23        -1.5993   -4.5943    1.9218 H         1 <0>         0.0800
     59 H24        -0.2563   -5.4850    1.1980 H         1 <0>         0.0681
     60 H25         0.1357   -3.0322    1.0943 H         1 <0>         0.0740
     61 H26         1.3654   -3.8328    2.0643 H         1 <0>         0.0631
     62 H27        -0.6565   -5.0623    4.2062 H         1 <0>         0.0970
     63 H28         0.6914   -5.9295    3.4522 H         1 <0>         0.0725
     64 H29         0.1003   -3.1895    4.1787 H         1 <0>         0.0839
     65 H30        -3.3945   -0.3205    2.6487 H         1 <0>         0.4531
     66 H31        -2.4745   -9.1890    3.5432 H         1 <0>         0.4798
     67 H32        -1.8257   -9.6431    5.0878 H         1 <0>         0.4881
     68 H33         0.2854   -6.7248    5.5187 H         1 <0>         0.4801
     69 H34        -0.2317   -8.2251    6.2325 H         1 <0>         0.4806
     70 H35        -1.7526   -7.0814    2.5245 H         1 <0>         0.4689
     71 H36        -1.6042   -1.6955    2.2078 H         1 <0>         0.4505
     72 H37         4.1809   -5.2504    3.4059 H         1 <0>         0.4443
@<TRIPOS>BOND
     1    1    2 ar
     2    1    3 ar
     3    2    4 ar
     4    3    6 ar
     5    4    5 ar
     6    4   10 1
     7    5    6 ar
     8    5   24 1
     9    6   35 1
    10    7   15 1
    11    7   30 2
    12    7   34 1
    13    8   23 1
    14    8   25 am
    15    8   31 2
    16    9   26 1
    17    9   27 1
    18    9   28 1
    19   10   16 1
    20   11   13 1
    21   11   17 1
    22   12   15 1
    23   12   17 1
    24   13   25 1
    25   14   16 1
    26   14   24 1
    27   15   25 1
    28   16   18 1
    29   17   19 1
    30   20   21 1
    31   20   22 1
    32   21   23 1
    33   22   28 1
    34   23   29 1
    35   29   35 1
    36   32   35 2
    37   33   35 2
    38    1   36 1
    39    2   37 1
    40    3   38 1
    41   10   39 1
    42   10   40 1
    43   11   41 1
    44   11   42 1
    45   12   43 1
    46   12   44 1
    47   13   45 1
    48   13   46 1
    49   14   47 1
    50   14   48 1
    51   15   49 1
    52   16   50 1
    53   17   51 1
    54   18   52 1
    55   18   53 1
    56   18   54 1
    57   19   55 1
    58   19   56 1
    59   19   57 1
    60   20   58 1
    61   20   59 1
    62   21   60 1
    63   21   61 1
    64   22   62 1
    65   22   63 1
    66   23   64 1
    67   24   65 1
    68   26   66 1
    69   26   67 1
    70   27   68 1
    71   27   69 1
    72   28   70 1
    73   29   71 1
    74   34   72 1
@<TRIPOS>MOLECULE
1dwc_ligand_20
   72    74     0     0     0
SMALL
USER_CHARGES

mmff94s_NoEstat = 74.20
@<TRIPOS>ATOM
      1 C1         -1.4167   -4.0969    7.4880 C.ar      1 <0>        -0.1945
      2 C2         -1.3782   -2.9116    8.2194 C.ar      1 <0>        -0.0294
      3 C3         -1.8193   -4.0774    6.1560 C.ar      1 <0>        -0.0143
      4 C4         -1.7393   -1.6967    7.6196 C.ar      1 <0>        -0.1552
      5 C5         -2.1757   -1.6726    6.2800 C.ar      1 <0>         0.3076
      6 C6         -2.1929   -2.8737    5.5561 C.ar      1 <0>        -0.4908
      7 C7          3.5686   -3.4379    3.7704 C.2       1 <0>         0.5994
      8 C8          0.8654   -1.4427    3.2413 C.2       1 <0>         0.6462
      9 C9         -1.9037   -4.9458   -1.0028 C.cat     1 <0>         0.6305
     10 C10        -1.6986   -0.4229    8.4294 C.3       1 <0>        -0.0319
     11 C11         3.4440   -0.0674    5.4719 C.3       1 <0>        -0.0918
     12 C12         3.1682   -2.4952    6.0163 C.3       1 <0>        -0.0841
     13 C13         2.9000   -0.3276    4.0730 C.3       1 <0>         0.0870
     14 C14        -2.7014    0.7278    6.4404 C.3       1 <0>         0.2023
     15 C15         2.5392   -2.7371    4.6417 C.3       1 <0>         0.0778
     16 C16        -1.6211    0.8160    7.5233 C.3       1 <0>        -0.0746
     17 C17         4.1435   -1.3104    6.0281 C.3       1 <0>        -0.0681
     18 C18        -1.7676    2.0967    8.3404 C.3       1 <0>        -0.0944
     19 C19         4.6673   -1.0527    7.4396 C.3       1 <0>        -0.0918
     20 C20         0.0249   -2.8727    0.7002 C.3       1 <0>        -0.1192
     21 C21         0.3004   -3.5693    2.0376 C.3       1 <0>        -0.0916
     22 C22         0.2602   -3.7963   -0.4886 C.3       1 <0>         0.1883
     23 C23        -0.0078   -2.6730    3.2260 C.3       1 <0>         0.1952
     24 N1         -2.5388   -0.4838    5.6592 N.pl3     1 <0>        -0.7670
     25 N2          2.0252   -1.5038    4.0223 N.am      1 <0>        -0.4509
     26 N3         -2.7225   -6.0692   -0.9554 N.pl3     1 <0>        -0.8477
     27 N4         -2.3754   -3.7883   -1.6126 N.pl3     1 <0>        -0.8633
     28 N5         -0.6182   -4.9567   -0.4508 N.pl3     1 <0>        -0.7419
     29 N6         -1.3760   -2.1385    3.1042 N.pl3     1 <0>        -0.8860
     30 O1          4.3335   -2.8779    2.9993 O.2       1 <0>        -0.5199
     31 O2          0.5240   -0.4555    2.5844 O.2       1 <0>        -0.6131
     32 O3         -2.6902   -4.3257    3.4539 O.2       1 <0>        -0.6576
     33 O4         -3.8691   -2.1223    3.7357 O.2       1 <0>        -0.6482
     34 O5          3.5241   -4.7791    3.9616 O.3       1 <0>        -0.6303
     35 S1         -2.6746   -2.9347    3.8647 S.o2      1 <0>         1.5193
     36 H1         -1.1294   -5.0344    7.9561 H         1 <0>         0.1426
     37 H2         -1.0595   -2.9358    9.2588 H         1 <0>         0.1398
     38 H3         -1.8474   -4.9936    5.5747 H         1 <0>         0.1599
     39 H4         -2.6003   -0.3825    9.0536 H         1 <0>         0.0574
     40 H5         -0.8290   -0.4326    9.0980 H         1 <0>         0.0629
     41 H6          4.1435    0.7764    5.4419 H         1 <0>         0.0614
     42 H7          2.6191    0.2214    6.1357 H         1 <0>         0.0593
     43 H8          2.3618   -2.2928    6.7345 H         1 <0>         0.0841
     44 H9          3.6813   -3.3988    6.3690 H         1 <0>         0.0679
     45 H10         2.3679    0.5618    3.7197 H         1 <0>         0.0826
     46 H11         3.7232   -0.5081    3.3711 H         1 <0>         0.0383
     47 H12        -3.7013    0.7380    6.8917 H         1 <0>         0.0556
     48 H13        -2.6389    1.5936    5.7717 H         1 <0>         0.0415
     49 H14         1.7211   -3.4548    4.7590 H         1 <0>         0.0851
     50 H15        -0.6364    0.8362    7.0371 H         1 <0>         0.0639
     51 H16         5.0063   -1.5479    5.3937 H         1 <0>         0.0584
     52 H17        -1.4722    2.9671    7.7470 H         1 <0>         0.0401
     53 H18        -2.8055    2.2330    8.6588 H         1 <0>         0.0440
     54 H19        -1.1357    2.0577    9.2327 H         1 <0>         0.0459
     55 H20         4.2777   -1.8006    8.1367 H         1 <0>         0.0456
     56 H21         5.7602   -1.1000    7.4588 H         1 <0>         0.0366
     57 H22         4.3590   -0.0627    7.7891 H         1 <0>         0.0474
     58 H23        -1.0105   -2.5120    0.6824 H         1 <0>         0.0800
     59 H24         0.6776   -1.9980    0.5976 H         1 <0>         0.0681
     60 H25         1.3460   -3.9033    2.0652 H         1 <0>         0.0740
     61 H26        -0.3175   -4.4733    2.1109 H         1 <0>         0.0631
     62 H27         1.2957   -4.1503   -0.5157 H         1 <0>         0.0970
     63 H28         0.0608   -3.2615   -1.4226 H         1 <0>         0.0725
     64 H29         0.1003   -3.1895    4.1787 H         1 <0>         0.0839
     65 H30        -2.9169   -0.5266    4.7209 H         1 <0>         0.4531
     66 H31        -2.4195   -6.9373   -0.5220 H         1 <0>         0.4798
     67 H32        -3.6559   -6.0529   -1.3599 H         1 <0>         0.4881
     68 H33        -1.8031   -2.9491   -1.6649 H         1 <0>         0.4801
     69 H34        -3.3061   -3.7503   -2.0214 H         1 <0>         0.4806
     70 H35        -0.2999   -5.8210   -0.0100 H         1 <0>         0.4689
     71 H36        -1.4476   -1.1318    2.9219 H         1 <0>         0.4505
     72 H37         4.1809   -5.2504    3.4059 H         1 <0>         0.4443
@<TRIPOS>BOND
     1    1    2 ar
     2    1    3 ar
     3    2    4 ar
     4    3    6 ar
     5    4    5 ar
     6    4   10 1
     7    5    6 ar
     8    5   24 1
     9    6   35 1
    10    7   15 1
    11    7   30 2
    12    7   34 1
    13    8   23 1
    14    8   25 am
    15    8   31 2
    16    9   26 1
    17    9   27 1
    18    9   28 1
    19   10   16 1
    20   11   13 1
    21   11   17 1
    22   12   15 1
    23   12   17 1
    24   13   25 1
    25   14   16 1
    26   14   24 1
    27   15   25 1
    28   16   18 1
    29   17   19 1
    30   20   21 1
    31   20   22 1
    32   21   23 1
    33   22   28 1
    34   23   29 1
    35   29   35 1
    36   32   35 2
    37   33   35 2
    38    1   36 1
    39    2   37 1
    40    3   38 1
    41   10   39 1
    42   10   40 1
    43   11   41 1
    44   11   42 1
    45   12   43 1
    46   12   44 1
    47   13   45 1
    48   13   46 1
    49   14   47 1
    50   14   48 1
    51   15   49 1
    52   16   50 1
    53   17   51 1
    54   18   52 1
    55   18   53 1
    56   18   54 1
    57   19   55 1
    58   19   56 1
    59   19   57 1
    60   20   58 1
    61   20   59 1
    62   21   60 1
    63   21   61 1
    64   22   62 1
    65   22   63 1
    66   23   64 1
    67   24   65 1
    68   26   66 1
    69   26   67 1
    70   27   68 1
    71   27   69 1
    72   28   70 1
    73   29   71 1
    74   34   72 1
@<TRIPOS>MOLECULE
1dwc_ligand_21
   72    74     0     0     0
SMALL
USER_CHARGES

mmff94s_NoEstat = 74.26
@<TRIPOS>ATOM
      1 C1         -0.5687   -1.8484    7.8285 C.ar      1 <0>        -0.1945
      2 C2         -0.3952   -0.4679    7.9011 C.ar      1 <0>        -0.0294
      3 C3         -1.2191   -2.4094    6.7334 C.ar      1 <0>        -0.0143
      4 C4         -0.8690    0.3609    6.8741 C.ar      1 <0>        -0.1552
      5 C5         -1.5541   -0.1965    5.7761 C.ar      1 <0>         0.3076
      6 C6         -1.7052   -1.5894    5.7138 C.ar      1 <0>        -0.4908
      7 C7          2.9525   -3.7210    4.6633 C.2       1 <0>         0.5994
      8 C8          0.8654   -1.4427    3.2413 C.2       1 <0>         0.6462
      9 C9          2.0746   -5.2044   -1.4852 C.cat     1 <0>         0.6305
     10 C10        -0.6787    1.8556    6.9729 C.3       1 <0>        -0.0319
     11 C11         3.8997   -0.0663    4.7953 C.3       1 <0>        -0.0918
     12 C12         3.0155   -1.8674    6.2922 C.3       1 <0>        -0.0841
     13 C13         3.1900   -0.7124    3.6122 C.3       1 <0>         0.0870
     14 C14        -2.0484    2.0439    4.8813 C.3       1 <0>         0.2023
     15 C15         2.2314   -2.4635    5.1202 C.3       1 <0>         0.0778
     16 C16        -0.7810    2.5267    5.5942 C.3       1 <0>        -0.0746
     17 C17         4.2756   -1.1130    5.8473 C.3       1 <0>        -0.0681
     18 C18        -0.7731    4.0470    5.7280 C.3       1 <0>        -0.0944
     19 C19         4.9663   -0.4582    7.0420 C.3       1 <0>        -0.0918
     20 C20         0.0249   -2.8727    0.7002 C.3       1 <0>        -0.1192
     21 C21         0.3004   -3.5693    2.0376 C.3       1 <0>        -0.0916
     22 C22         0.2602   -3.7963   -0.4886 C.3       1 <0>         0.1883
     23 C23        -0.0078   -2.6730    3.2260 C.3       1 <0>         0.1952
     24 N1         -2.0339    0.5998    4.7435 N.pl3     1 <0>        -0.7670
     25 N2          2.0252   -1.5038    4.0223 N.am      1 <0>        -0.4509
     26 N3          3.3877   -5.6631   -1.4955 N.pl3     1 <0>        -0.8477
     27 N4          1.1890   -5.6621   -2.4548 N.pl3     1 <0>        -0.8633
     28 N5          1.6278   -4.2942   -0.5212 N.pl3     1 <0>        -0.7419
     29 N6         -1.3760   -2.1385    3.1042 N.pl3     1 <0>        -0.8860
     30 O1          3.7741   -3.7699    3.7601 O.2       1 <0>        -0.5199
     31 O2          0.5240   -0.4555    2.5844 O.2       1 <0>        -0.6131
     32 O3         -2.5906   -3.7967    4.6561 O.2       1 <0>        -0.6576
     33 O4         -3.7019   -1.6181    4.0705 O.2       1 <0>        -0.6482
     34 O5          2.5581   -4.7916    5.3952 O.3       1 <0>        -0.6303
     35 S1         -2.5018   -2.3799    4.3583 S.o2      1 <0>         1.5193
     36 H1         -0.1935   -2.4863    8.6241 H         1 <0>         0.1426
     37 H2          0.1168   -0.0386    8.7590 H         1 <0>         0.1398
     38 H3         -1.3546   -3.4839    6.6632 H         1 <0>         0.1599
     39 H4         -1.4443    2.2564    7.6493 H         1 <0>         0.0574
     40 H5          0.3029    2.0794    7.4083 H         1 <0>         0.0629
     41 H6          4.7987    0.4538    4.4437 H         1 <0>         0.0614
     42 H7          3.2442    0.6909    5.2441 H         1 <0>         0.0593
     43 H8          2.3586   -1.1679    6.8273 H         1 <0>         0.0841
     44 H9          3.2888   -2.6509    7.0104 H         1 <0>         0.0679
     45 H10         2.8945    0.0639    2.8988 H         1 <0>         0.0826
     46 H11         3.8704   -1.3909    3.0835 H         1 <0>         0.0383
     47 H12        -2.9433    2.3470    5.4389 H         1 <0>         0.0556
     48 H13        -2.1184    2.4959    3.8856 H         1 <0>         0.0415
     49 H14         1.2607   -2.8048    5.4936 H         1 <0>         0.0851
     50 H15         0.0923    2.2358    4.9947 H         1 <0>         0.0639
     51 H16         4.9839   -1.8245    5.4052 H         1 <0>         0.0584
     52 H17        -0.6000    4.5176    4.7555 H         1 <0>         0.0401
     53 H18        -1.7312    4.4037    6.1178 H         1 <0>         0.0440
     54 H19         0.0183    4.3685    6.4117 H         1 <0>         0.0459
     55 H20         4.4464   -0.7091    7.9715 H         1 <0>         0.0456
     56 H21         6.0020   -0.8015    7.1231 H         1 <0>         0.0366
     57 H22         4.9717    0.6305    6.9335 H         1 <0>         0.0474
     58 H23        -1.0105   -2.5120    0.6824 H         1 <0>         0.0800
     59 H24         0.6776   -1.9980    0.5976 H         1 <0>         0.0681
     60 H25         1.3460   -3.9033    2.0652 H         1 <0>         0.0740
     61 H26        -0.3175   -4.4733    2.1109 H         1 <0>         0.0631
     62 H27         0.0590   -3.2831   -1.4342 H         1 <0>         0.0970
     63 H28        -0.4054   -4.6631   -0.4257 H         1 <0>         0.0725
     64 H29         0.1003   -3.1895    4.1787 H         1 <0>         0.0839
     65 H30        -2.5847    0.1629    4.0147 H         1 <0>         0.4531
     66 H31         4.0702   -5.3548   -0.8082 H         1 <0>         0.4798
     67 H32         3.7046   -6.3246   -2.2006 H         1 <0>         0.4881
     68 H33         0.2221   -5.3473   -2.4765 H         1 <0>         0.4801
     69 H34         1.4849   -6.3248   -3.1675 H         1 <0>         0.4806
     70 H35         2.3012   -3.9765    0.1776 H         1 <0>         0.4689
     71 H36        -1.4850   -1.3266    2.4871 H         1 <0>         0.4505
     72 H37         3.0115   -5.6147    5.1139 H         1 <0>         0.4443
@<TRIPOS>BOND
     1    1    2 ar
     2    1    3 ar
     3    2    4 ar
     4    3    6 ar
     5    4    5 ar
     6    4   10 1
     7    5    6 ar
     8    5   24 1
     9    6   35 1
    10    7   15 1
    11    7   30 2
    12    7   34 1
    13    8   23 1
    14    8   25 am
    15    8   31 2
    16    9   26 1
    17    9   27 1
    18    9   28 1
    19   10   16 1
    20   11   13 1
    21   11   17 1
    22   12   15 1
    23   12   17 1
    24   13   25 1
    25   14   16 1
    26   14   24 1
    27   15   25 1
    28   16   18 1
    29   17   19 1
    30   20   21 1
    31   20   22 1
    32   21   23 1
    33   22   28 1
    34   23   29 1
    35   29   35 1
    36   32   35 2
    37   33   35 2
    38    1   36 1
    39    2   37 1
    40    3   38 1
    41   10   39 1
    42   10   40 1
    43   11   41 1
    44   11   42 1
    45   12   43 1
    46   12   44 1
    47   13   45 1
    48   13   46 1
    49   14   47 1
    50   14   48 1
    51   15   49 1
    52   16   50 1
    53   17   51 1
    54   18   52 1
    55   18   53 1
    56   18   54 1
    57   19   55 1
    58   19   56 1
    59   19   57 1
    60   20   58 1
    61   20   59 1
    62   21   60 1
    63   21   61 1
    64   22   62 1
    65   22   63 1
    66   23   64 1
    67   24   65 1
    68   26   66 1
    69   26   67 1
    70   27   68 1
    71   27   69 1
    72   28   70 1
    73   29   71 1
    74   34   72 1
@<TRIPOS>MOLECULE
1dwc_ligand_22
   72    74     0     0     0
SMALL
USER_CHARGES

mmff94s_NoEstat = 74.27
@<TRIPOS>ATOM
      1 C1         -0.5687   -1.8484    7.8285 C.ar      1 <0>        -0.1945
      2 C2         -0.3952   -0.4679    7.9011 C.ar      1 <0>        -0.0294
      3 C3         -1.2191   -2.4094    6.7334 C.ar      1 <0>        -0.0143
      4 C4         -0.8690    0.3609    6.8741 C.ar      1 <0>        -0.1552
      5 C5         -1.5541   -0.1965    5.7761 C.ar      1 <0>         0.3076
      6 C6         -1.7052   -1.5894    5.7138 C.ar      1 <0>        -0.4908
      7 C7          4.0428   -2.6510    3.1279 C.2       1 <0>         0.5994
      8 C8          0.8654   -1.4427    3.2413 C.2       1 <0>         0.6462
      9 C9          0.2237   -3.7376   -2.9912 C.cat     1 <0>         0.6305
     10 C10        -0.6787    1.8556    6.9729 C.3       1 <0>        -0.0319
     11 C11         3.0349   -0.4758    6.0475 C.3       1 <0>        -0.0918
     12 C12         3.4817   -2.8819    5.5206 C.3       1 <0>        -0.0841
     13 C13         2.5314   -0.2662    4.6251 C.3       1 <0>         0.0870
     14 C14        -2.0484    2.0439    4.8813 C.3       1 <0>         0.2023
     15 C15         2.8926   -2.6899    4.1206 C.3       1 <0>         0.0778
     16 C16        -0.7810    2.5267    5.5942 C.3       1 <0>        -0.0746
     17 C17         4.0802   -1.5931    6.1000 C.3       1 <0>        -0.0681
     18 C18        -0.7731    4.0470    5.7280 C.3       1 <0>        -0.0944
     19 C19         4.5654   -1.8157    7.5311 C.3       1 <0>        -0.0918
     20 C20         0.0249   -2.8727    0.7002 C.3       1 <0>        -0.1192
     21 C21         0.3004   -3.5693    2.0376 C.3       1 <0>        -0.0916
     22 C22         0.2602   -3.7963   -0.4886 C.3       1 <0>         0.1883
     23 C23        -0.0078   -2.6730    3.2260 C.3       1 <0>         0.1952
     24 N1         -2.0339    0.5998    4.7435 N.pl3     1 <0>        -0.7670
     25 N2          2.0252   -1.5038    4.0223 N.am      1 <0>        -0.4509
     26 N3         -0.0152   -3.0669   -4.1862 N.pl3     1 <0>        -0.8477
     27 N4          0.6744   -5.0526   -3.0302 N.pl3     1 <0>        -0.8633
     28 N5          0.0202   -3.1173   -1.7538 N.pl3     1 <0>        -0.7419
     29 N6         -1.3760   -2.1385    3.1042 N.pl3     1 <0>        -0.8860
     30 O1          5.1343   -3.1736    3.2976 O.2       1 <0>        -0.5199
     31 O2          0.5240   -0.4555    2.5844 O.2       1 <0>        -0.6131
     32 O3         -2.5906   -3.7967    4.6561 O.2       1 <0>        -0.6576
     33 O4         -3.7019   -1.6181    4.0705 O.2       1 <0>        -0.6482
     34 O5          3.6956   -1.9512    2.0202 O.3       1 <0>        -0.6303
     35 S1         -2.5018   -2.3799    4.3583 S.o2      1 <0>         1.5193
     36 H1         -0.1935   -2.4863    8.6241 H         1 <0>         0.1426
     37 H2          0.1168   -0.0386    8.7590 H         1 <0>         0.1398
     38 H3         -1.3546   -3.4839    6.6632 H         1 <0>         0.1599
     39 H4         -1.4443    2.2564    7.6493 H         1 <0>         0.0574
     40 H5          0.3029    2.0794    7.4083 H         1 <0>         0.0629
     41 H6          3.4643    0.4595    6.4257 H         1 <0>         0.0614
     42 H7          2.1893   -0.7290    6.6997 H         1 <0>         0.0593
     43 H8          2.6805   -3.2276    6.1882 H         1 <0>         0.0841
     44 H9          4.2439   -3.6714    5.5123 H         1 <0>         0.0679
     45 H10         1.7550    0.5058    4.6255 H         1 <0>         0.0826
     46 H11         3.3431    0.0962    3.9827 H         1 <0>         0.0383
     47 H12        -2.9433    2.3470    5.4389 H         1 <0>         0.0556
     48 H13        -2.1184    2.4959    3.8856 H         1 <0>         0.0415
     49 H14         2.3173   -3.5850    3.8636 H         1 <0>         0.0851
     50 H15         0.0923    2.2358    4.9947 H         1 <0>         0.0639
     51 H16         4.9487   -1.2974    5.4988 H         1 <0>         0.0584
     52 H17        -0.6000    4.5176    4.7555 H         1 <0>         0.0401
     53 H18        -1.7312    4.4037    6.1178 H         1 <0>         0.0440
     54 H19         0.0183    4.3685    6.4117 H         1 <0>         0.0459
     55 H20         4.4326   -2.8615    7.8238 H         1 <0>         0.0456
     56 H21         5.6267   -1.5650    7.6207 H         1 <0>         0.0366
     57 H22         4.0032   -1.1886    8.2295 H         1 <0>         0.0474
     58 H23        -1.0105   -2.5120    0.6824 H         1 <0>         0.0800
     59 H24         0.6776   -1.9980    0.5976 H         1 <0>         0.0681
     60 H25         1.3460   -3.9033    2.0652 H         1 <0>         0.0740
     61 H26        -0.3175   -4.4733    2.1109 H         1 <0>         0.0631
     62 H27        -0.3909   -4.6751   -0.4416 H         1 <0>         0.0970
     63 H28         1.2981   -4.1440   -0.4920 H         1 <0>         0.0725
     64 H29         0.1003   -3.1895    4.1787 H         1 <0>         0.0839
     65 H30        -2.5847    0.1629    4.0147 H         1 <0>         0.4531
     66 H31        -0.3470   -2.1063   -4.2064 H         1 <0>         0.4798
     67 H32         0.1347   -3.5257   -5.0818 H         1 <0>         0.4881
     68 H33         0.8589   -5.5723   -2.1756 H         1 <0>         0.4801
     69 H34         0.8324   -5.5290   -3.9149 H         1 <0>         0.4806
     70 H35        -0.3110   -2.1514   -1.7574 H         1 <0>         0.4689
     71 H36        -1.4850   -1.3266    2.4871 H         1 <0>         0.4505
     72 H37         4.4265   -1.9129    1.3670 H         1 <0>         0.4443
@<TRIPOS>BOND
     1    1    2 ar
     2    1    3 ar
     3    2    4 ar
     4    3    6 ar
     5    4    5 ar
     6    4   10 1
     7    5    6 ar
     8    5   24 1
     9    6   35 1
    10    7   15 1
    11    7   30 2
    12    7   34 1
    13    8   23 1
    14    8   25 am
    15    8   31 2
    16    9   26 1
    17    9   27 1
    18    9   28 1
    19   10   16 1
    20   11   13 1
    21   11   17 1
    22   12   15 1
    23   12   17 1
    24   13   25 1
    25   14   16 1
    26   14   24 1
    27   15   25 1
    28   16   18 1
    29   17   19 1
    30   20   21 1
    31   20   22 1
    32   21   23 1
    33   22   28 1
    34   23   29 1
    35   29   35 1
    36   32   35 2
    37   33   35 2
    38    1   36 1
    39    2   37 1
    40    3   38 1
    41   10   39 1
    42   10   40 1
    43   11   41 1
    44   11   42 1
    45   12   43 1
    46   12   44 1
    47   13   45 1
    48   13   46 1
    49   14   47 1
    50   14   48 1
    51   15   49 1
    52   16   50 1
    53   17   51 1
    54   18   52 1
    55   18   53 1
    56   18   54 1
    57   19   55 1
    58   19   56 1
    59   19   57 1
    60   20   58 1
    61   20   59 1
    62   21   60 1
    63   21   61 1
    64   22   62 1
    65   22   63 1
    66   23   64 1
    67   24   65 1
    68   26   66 1
    69   26   67 1
    70   27   68 1
    71   27   69 1
    72   28   70 1
    73   29   71 1
    74   34   72 1
@<TRIPOS>MOLECULE
1dwc_ligand_23
   72    74     0     0     0
SMALL
USER_CHARGES

mmff94s_NoEstat = 74.57
@<TRIPOS>ATOM
      1 C1          1.6845   -5.9778    0.1844 C.ar      1 <0>        -0.1945
      2 C2          0.6520   -5.4496    0.9566 C.ar      1 <0>        -0.0294
      3 C3          1.9606   -5.4374   -1.0681 C.ar      1 <0>        -0.0143
      4 C4         -0.1093   -4.3725    0.4806 C.ar      1 <0>        -0.1552
      5 C5          0.1450   -3.8386   -0.7984 C.ar      1 <0>         0.3076
      6 C6          1.1982   -4.3739   -1.5539 C.ar      1 <0>        -0.4908
      7 C7          1.8102   -1.5505    2.3702 C.2       1 <0>         0.5994
      8 C8          2.9466   -1.3973   -0.6457 C.2       1 <0>         0.6462
      9 C9          8.5933   -0.5790   -3.8993 C.cat     1 <0>         0.6305
     10 C10        -1.2292   -3.8175    1.3278 C.3       1 <0>        -0.0319
     11 C11         4.4920   -3.4807    2.0801 C.3       1 <0>        -0.0918
     12 C12         4.1798   -1.0721    2.8769 C.3       1 <0>        -0.0841
     13 C13         4.5658   -2.7774    0.7291 C.3       1 <0>         0.0870
     14 C14        -1.7931   -2.3309   -0.6108 C.3       1 <0>         0.2023
     15 C15         3.1125   -1.0286    1.7861 C.3       1 <0>         0.0778
     16 C16        -1.5940   -2.3850    0.9075 C.3       1 <0>        -0.0746
     17 C17         4.5869   -2.5050    3.2643 C.3       1 <0>        -0.0681
     18 C18        -2.8431   -1.9049    1.6414 C.3       1 <0>        -0.0944
     19 C19         5.9882   -2.5079    3.8779 C.3       1 <0>        -0.0918
     20 C20         5.1203   -2.1076   -3.7746 C.3       1 <0>        -0.1192
     21 C21         4.5564   -1.3488   -2.5679 C.3       1 <0>        -0.0916
     22 C22         6.2766   -1.3646   -4.4322 C.3       1 <0>         0.1883
     23 C23         3.4544   -2.1251   -1.8653 C.3       1 <0>         0.1952
     24 N1         -0.5924   -2.7711   -1.2958 N.pl3     1 <0>        -0.7670
     25 N2          3.5192   -1.7560    0.5781 N.am      1 <0>        -0.4509
     26 N3          9.6431   -0.4158   -3.0015 N.pl3     1 <0>        -0.8477
     27 N4          8.7440   -0.1312   -5.2072 N.pl3     1 <0>        -0.8633
     28 N5          7.3917   -1.1832   -3.5140 N.pl3     1 <0>        -0.7419
     29 N6          2.2741   -2.2179   -2.7432 N.pl3     1 <0>        -0.8860
     30 O1          1.4308   -2.7108    2.3137 O.2       1 <0>        -0.5199
     31 O2          2.0685   -0.5400   -0.7710 O.2       1 <0>        -0.6131
     32 O3          2.6686   -4.5798   -3.6918 O.2       1 <0>        -0.6576
     33 O4          0.3811   -3.5494   -3.8650 O.2       1 <0>        -0.6482
     34 O5          1.1172   -0.5491    2.9655 O.3       1 <0>        -0.6303
     35 S1          1.6226   -3.7401   -3.1398 S.o2      1 <0>         1.5193
     36 H1          2.2754   -6.8081    0.5612 H         1 <0>         0.1426
     37 H2          0.4453   -5.8762    1.9353 H         1 <0>         0.1398
     38 H3          2.7663   -5.8367   -1.6758 H         1 <0>         0.1599
     39 H4         -2.0994   -4.4781    1.2245 H         1 <0>         0.0574
     40 H5         -0.9335   -3.8165    2.3842 H         1 <0>         0.0629
     41 H6          3.5311   -4.0088    2.1410 H         1 <0>         0.0614
     42 H7          5.2694   -4.2509    2.1463 H         1 <0>         0.0593
     43 H8          5.0641   -0.5305    2.5137 H         1 <0>         0.0841
     44 H9          3.8399   -0.5392    3.7741 H         1 <0>         0.0679
     45 H10         5.5312   -2.2723    0.6079 H         1 <0>         0.0826
     46 H11         4.4795   -3.5150   -0.0747 H         1 <0>         0.0383
     47 H12        -2.6365   -2.9647   -0.9116 H         1 <0>         0.0556
     48 H13        -2.0279   -1.3080   -0.9257 H         1 <0>         0.0415
     49 H14         2.9188    0.0160    1.5141 H         1 <0>         0.0851
     50 H15        -0.7654   -1.7164    1.1777 H         1 <0>         0.0639
     51 H16         3.9047   -2.8651    4.0450 H         1 <0>         0.0584
     52 H17        -2.9604   -0.8225    1.5328 H         1 <0>         0.0401
     53 H18        -3.7366   -2.3905    1.2379 H         1 <0>         0.0440
     54 H19        -2.7758   -2.1387    2.7081 H         1 <0>         0.0459
     55 H20         6.0310   -3.1862    4.7353 H         1 <0>         0.0456
     56 H21         6.7293   -2.8350    3.1425 H         1 <0>         0.0366
     57 H22         6.2606   -1.5045    4.2187 H         1 <0>         0.0474
     58 H23         5.4592   -3.1007   -3.4560 H         1 <0>         0.0800
     59 H24         4.3307   -2.2553   -4.5204 H         1 <0>         0.0681
     60 H25         4.1906   -0.3664   -2.8945 H         1 <0>         0.0740
     61 H26         5.3633   -1.1575   -1.8491 H         1 <0>         0.0631
     62 H27         5.9616   -0.3787   -4.7887 H         1 <0>         0.0970
     63 H28         6.6457   -1.9332   -5.2916 H         1 <0>         0.0725
     64 H29         3.7703   -3.1244   -1.5692 H         1 <0>         0.0839
     65 H30        -0.4235   -2.4715   -2.2481 H         1 <0>         0.4531
     66 H31         9.5774   -0.7257   -2.0356 H         1 <0>         0.4798
     67 H32        10.5134    0.0253   -3.2898 H         1 <0>         0.4881
     68 H33         7.9967   -0.2346   -5.8893 H         1 <0>         0.4801
     69 H34         9.6064    0.3108   -5.5164 H         1 <0>         0.4806
     70 H35         7.3110   -1.5018   -2.5472 H         1 <0>         0.4689
     71 H36         1.6613   -1.3957   -2.7560 H         1 <0>         0.4505
     72 H37         0.2712   -0.8659    3.3478 H         1 <0>         0.4443
@<TRIPOS>BOND
     1    1    2 ar
     2    1    3 ar
     3    2    4 ar
     4    3    6 ar
     5    4    5 ar
     6    4   10 1
     7    5    6 ar
     8    5   24 1
     9    6   35 1
    10    7   15 1
    11    7   30 2
    12    7   34 1
    13    8   23 1
    14    8   25 am
    15    8   31 2
    16    9   26 1
    17    9   27 1
    18    9   28 1
    19   10   16 1
    20   11   13 1
    21   11   17 1
    22   12   15 1
    23   12   17 1
    24   13   25 1
    25   14   16 1
    26   14   24 1
    27   15   25 1
    28   16   18 1
    29   17   19 1
    30   20   21 1
    31   20   22 1
    32   21   23 1
    33   22   28 1
    34   23   29 1
    35   29   35 1
    36   32   35 2
    37   33   35 2
    38    1   36 1
    39    2   37 1
    40    3   38 1
    41   10   39 1
    42   10   40 1
    43   11   41 1
    44   11   42 1
    45   12   43 1
    46   12   44 1
    47   13   45 1
    48   13   46 1
    49   14   47 1
    50   14   48 1
    51   15   49 1
    52   16   50 1
    53   17   51 1
    54   18   52 1
    55   18   53 1
    56   18   54 1
    57   19   55 1
    58   19   56 1
    59   19   57 1
    60   20   58 1
    61   20   59 1
    62   21   60 1
    63   21   61 1
    64   22   62 1
    65   22   63 1
    66   23   64 1
    67   24   65 1
    68   26   66 1
    69   26   67 1
    70   27   68 1
    71   27   69 1
    72   28   70 1
    73   29   71 1
    74   34   72 1
@<TRIPOS>MOLECULE
1dwc_ligand_24
   72    74     0     0     0
SMALL
USER_CHARGES

mmff94s_NoEstat = 74.59
@<TRIPOS>ATOM
      1 C1          0.2729   -5.6236   -0.4407 C.ar      1 <0>        -0.1945
      2 C2         -0.6484   -6.6112   -0.0987 C.ar      1 <0>        -0.0294
      3 C3          1.0504   -5.0282    0.5480 C.ar      1 <0>        -0.0143
      4 C4         -0.8004   -7.0071    1.2380 C.ar      1 <0>        -0.1552
      5 C5          0.0031   -6.4297    2.2408 C.ar      1 <0>         0.3076
      6 C6          0.9136   -5.4263    1.8789 C.ar      1 <0>        -0.4908
      7 C7         -1.4628    0.1636    1.3526 C.2       1 <0>         0.5994
      8 C8          0.8654   -1.4427    3.2413 C.2       1 <0>         0.6462
      9 C9         -5.5866   -1.9509    4.3621 C.cat     1 <0>         0.6305
     10 C10        -1.7983   -8.0848    1.5877 C.3       1 <0>        -0.0319
     11 C11         2.1918    0.8805    0.7195 C.3       1 <0>        -0.0918
     12 C12         0.2821   -0.3679   -0.3105 C.3       1 <0>        -0.0841
     13 C13         1.6113    0.6116    2.1020 C.3       1 <0>         0.0870
     14 C14        -0.9225   -7.9557    3.9392 C.3       1 <0>         0.2023
     15 C15        -0.2506   -0.7126    1.0828 C.3       1 <0>         0.0778
     16 C16        -2.1834   -8.0707    3.0760 C.3       1 <0>        -0.0746
     17 C17         1.0859    0.9390   -0.3376 C.3       1 <0>        -0.0681
     18 C18        -3.1963   -6.9649    3.3941 C.3       1 <0>        -0.0944
     19 C19         1.6740    1.1859   -1.7255 C.3       1 <0>        -0.0918
     20 C20        -2.2331   -3.6727    3.9110 C.3       1 <0>        -0.1192
     21 C21        -1.3133   -2.4479    3.9716 C.3       1 <0>        -0.0916
     22 C22        -3.5726   -3.4201    4.5920 C.3       1 <0>         0.1883
     23 C23        -0.0078   -2.6730    3.2260 C.3       1 <0>         0.1952
     24 N1         -0.1305   -6.7964    3.5741 N.pl3     1 <0>        -0.7670
     25 N2          0.7744   -0.5925    2.1333 N.am      1 <0>        -0.4509
     26 N3         -6.2639   -0.9089    3.7373 N.pl3     1 <0>        -0.8477
     27 N4         -6.1992   -2.6234    5.4140 N.pl3     1 <0>        -0.8633
     28 N5         -4.3046   -2.3352    3.9546 N.pl3     1 <0>        -0.7419
     29 N6          0.7961   -3.6905    3.9267 N.pl3     1 <0>        -0.8860
     30 O1         -1.4385    1.2323    1.9447 O.2       1 <0>        -0.5199
     31 O2          1.6103   -1.2468    4.2054 O.2       1 <0>        -0.6131
     32 O3          2.4834   -5.6363    3.9445 O.2       1 <0>        -0.6576
     33 O4          2.8151   -3.7334    2.3342 O.2       1 <0>        -0.6482
     34 O5         -2.5854   -0.4037    0.8474 O.3       1 <0>        -0.6303
     35 S1          1.9328   -4.6215    3.0666 S.o2      1 <0>         1.5193
     36 H1          0.3819   -5.3163   -1.4773 H         1 <0>         0.1426
     37 H2         -1.2538   -7.0689   -0.8775 H         1 <0>         0.1398
     38 H3          1.7672   -4.2535    0.2943 H         1 <0>         0.1599
     39 H4         -2.7011   -7.9788    0.9739 H         1 <0>         0.0574
     40 H5         -1.3433   -9.0529    1.3421 H         1 <0>         0.0629
     41 H6          2.7495    1.8244    0.7335 H         1 <0>         0.0614
     42 H7          2.9066    0.0878    0.4640 H         1 <0>         0.0593
     43 H8          0.9336   -1.1873   -0.6438 H         1 <0>         0.0841
     44 H9         -0.5414   -0.3095   -1.0336 H         1 <0>         0.0679
     45 H10         2.4269    0.5309    2.8282 H         1 <0>         0.0826
     46 H11         0.9807    1.4504    2.4206 H         1 <0>         0.0383
     47 H12        -1.1905   -7.8906    4.9997 H         1 <0>         0.0556
     48 H13        -0.3087   -8.8568    3.8183 H         1 <0>         0.0415
     49 H14        -0.6325   -1.7382    1.0612 H         1 <0>         0.0851
     50 H15        -2.6797   -9.0207    3.3097 H         1 <0>         0.0639
     51 H16         0.4173    1.7778   -0.1080 H         1 <0>         0.0584
     52 H17        -3.3457   -6.3186    2.5240 H         1 <0>         0.0401
     53 H18        -4.1623   -7.3968    3.6724 H         1 <0>         0.0440
     54 H19        -2.8427   -6.3474    4.2251 H         1 <0>         0.0459
     55 H20         1.1081    0.6390   -2.4855 H         1 <0>         0.0456
     56 H21         1.6425    2.2512   -1.9725 H         1 <0>         0.0366
     57 H22         2.7156    0.8534   -1.7662 H         1 <0>         0.0474
     58 H23        -2.4032   -3.9506    2.8639 H         1 <0>         0.0800
     59 H24        -1.7473   -4.5245    4.4007 H         1 <0>         0.0681
     60 H25        -1.1204   -2.1894    5.0211 H         1 <0>         0.0740
     61 H26        -1.8263   -1.5854    3.5275 H         1 <0>         0.0631
     62 H27        -3.4379   -3.1690    5.6489 H         1 <0>         0.0970
     63 H28        -4.1962   -4.3179    4.5344 H         1 <0>         0.0725
     64 H29        -0.1638   -2.9774    2.1921 H         1 <0>         0.0839
     65 H30         0.5206   -6.4083    4.2456 H         1 <0>         0.4531
     66 H31        -5.8550   -0.3880    2.9661 H         1 <0>         0.4798
     67 H32        -7.1958   -0.6354    4.0404 H         1 <0>         0.4881
     68 H33        -5.7325   -3.3897    5.8930 H         1 <0>         0.4801
     69 H34        -7.1311   -2.3670    5.7313 H         1 <0>         0.4806
     70 H35        -3.8810   -1.8227    3.1796 H         1 <0>         0.4689
     71 H36         0.9382   -3.5340    4.9302 H         1 <0>         0.4505
     72 H37        -3.3805    0.1466    1.0133 H         1 <0>         0.4443
@<TRIPOS>BOND
     1    1    2 ar
     2    1    3 ar
     3    2    4 ar
     4    3    6 ar
     5    4    5 ar
     6    4   10 1
     7    5    6 ar
     8    5   24 1
     9    6   35 1
    10    7   15 1
    11    7   30 2
    12    7   34 1
    13    8   23 1
    14    8   25 am
    15    8   31 2
    16    9   26 1
    17    9   27 1
    18    9   28 1
    19   10   16 1
    20   11   13 1
    21   11   17 1
    22   12   15 1
    23   12   17 1
    24   13   25 1
    25   14   16 1
    26   14   24 1
    27   15   25 1
    28   16   18 1
    29   17   19 1
    30   20   21 1
    31   20   22 1
    32   21   23 1
    33   22   28 1
    34   23   29 1
    35   29   35 1
    36   32   35 2
    37   33   35 2
    38    1   36 1
    39    2   37 1
    40    3   38 1
    41   10   39 1
    42   10   40 1
    43   11   41 1
    44   11   42 1
    45   12   43 1
    46   12   44 1
    47   13   45 1
    48   13   46 1
    49   14   47 1
    50   14   48 1
    51   15   49 1
    52   16   50 1
    53   17   51 1
    54   18   52 1
    55   18   53 1
    56   18   54 1
    57   19   55 1
    58   19   56 1
    59   19   57 1
    60   20   58 1
    61   20   59 1
    62   21   60 1
    63   21   61 1
    64   22   62 1
    65   22   63 1
    66   23   64 1
    67   24   65 1
    68   26   66 1
    69   26   67 1
    70   27   68 1
    71   27   69 1
    72   28   70 1
    73   29   71 1
    74   34   72 1
@<TRIPOS>MOLECULE
1dwc_ligand_25
   72    74     0     0     0
SMALL
USER_CHARGES

mmff94s_NoEstat = 74.66
@<TRIPOS>ATOM
      1 C1         -1.9965   -5.9212    5.9958 C.ar      1 <0>        -0.1945
      2 C2         -2.1862   -5.2163    7.1826 C.ar      1 <0>        -0.0294
      3 C3         -2.1655   -5.2788    4.7728 C.ar      1 <0>        -0.0143
      4 C4         -2.5430   -3.8606    7.1524 C.ar      1 <0>        -0.1552
      5 C5         -2.7443   -3.2106    5.9185 C.ar      1 <0>         0.3076
      6 C6         -2.5336   -3.9330    4.7351 C.ar      1 <0>        -0.4908
      7 C7          2.0323   -3.0842    5.9821 C.2       1 <0>         0.5994
      8 C8          0.8654   -1.4427    3.2413 C.2       1 <0>         0.6462
      9 C9          1.3456   -6.9412   -0.3642 C.cat     1 <0>         0.6305
     10 C10        -2.7517   -3.1143    8.4484 C.3       1 <0>        -0.0319
     11 C11         3.0911    0.4998    5.4298 C.3       1 <0>        -0.0918
     12 C12         1.5534   -0.8369    6.8842 C.3       1 <0>        -0.0841
     13 C13         2.8818   -0.5022    4.3015 C.3       1 <0>         0.0870
     14 C14        -3.4952   -1.1625    7.0613 C.3       1 <0>         0.2023
     15 C15         1.2754   -1.7924    5.7207 C.3       1 <0>         0.0778
     16 C16        -2.6278   -1.5957    8.2477 C.3       1 <0>        -0.0746
     17 C17         2.9339   -0.1724    6.7962 C.3       1 <0>        -0.0681
     18 C18        -3.0221   -0.8459    9.5173 C.3       1 <0>        -0.0944
     19 C19         3.1216    0.8403    7.9242 C.3       1 <0>        -0.0918
     20 C20         1.7689   -4.0083    2.0091 C.3       1 <0>        -0.1192
     21 C21         0.3004   -3.5693    2.0376 C.3       1 <0>        -0.0916
     22 C22         2.0958   -4.8429    0.7769 C.3       1 <0>         0.1883
     23 C23        -0.0078   -2.6730    3.2260 C.3       1 <0>         0.1952
     24 N1         -3.0973   -1.8681    5.8578 N.pl3     1 <0>        -0.7670
     25 N2          1.5999   -1.2067    4.4091 N.am      1 <0>        -0.4509
     26 N3          0.5495   -8.0810   -0.4079 N.pl3     1 <0>        -0.8477
     27 N4          2.2318   -6.6929   -1.4069 N.pl3     1 <0>        -0.8633
     28 N5          1.2730   -6.0418    0.7049 N.pl3     1 <0>        -0.7419
     29 N6         -1.3760   -2.1385    3.1042 N.pl3     1 <0>        -0.8860
     30 O1          3.1450   -3.3455    5.5497 O.2       1 <0>        -0.5199
     31 O2          0.8891   -0.7105    2.2483 O.2       1 <0>        -0.6131
     32 O3         -2.5366   -4.2300    2.1492 O.2       1 <0>        -0.6576
     33 O4         -3.9323   -2.4104    3.1814 O.2       1 <0>        -0.6482
     34 O5          1.3022   -3.9170    6.7635 O.3       1 <0>        -0.6303
     35 S1         -2.7118   -3.1932    3.1483 S.o2      1 <0>         1.5193
     36 H1         -1.7136   -6.9698    6.0253 H         1 <0>         0.1426
     37 H2         -2.0492   -5.7255    8.1337 H         1 <0>         0.1398
     38 H3         -2.0145   -5.8162    3.8419 H         1 <0>         0.1599
     39 H4         -3.7469   -3.3674    8.8354 H         1 <0>         0.0574
     40 H5         -2.0117   -3.4391    9.1901 H         1 <0>         0.0629
     41 H6          4.0885    0.9467    5.3426 H         1 <0>         0.0614
     42 H7          2.3630    1.3153    5.3324 H         1 <0>         0.0593
     43 H8          0.7851   -0.0517    6.8776 H         1 <0>         0.0841
     44 H9          1.4567   -1.3607    7.8437 H         1 <0>         0.0679
     45 H10         2.9560    0.0148    3.3392 H         1 <0>         0.0826
     46 H11         3.6704   -1.2643    4.3172 H         1 <0>         0.0383
     47 H12        -4.5547   -1.3611    7.2657 H         1 <0>         0.0556
     48 H13        -3.3943   -0.0847    6.8920 H         1 <0>         0.0415
     49 H14         0.2160   -2.0663    5.7460 H         1 <0>         0.0851
     50 H15        -1.5799   -1.3538    8.0242 H         1 <0>         0.0639
     51 H16         3.7104   -0.9392    6.9078 H         1 <0>         0.0584
     52 H17        -2.7058    0.1999    9.4599 H         1 <0>         0.0401
     53 H18        -4.1069   -0.8706    9.6572 H         1 <0>         0.0440
     54 H19        -2.5511   -1.3005   10.3940 H         1 <0>         0.0459
     55 H20         2.2527    0.8404    8.5891 H         1 <0>         0.0456
     56 H21         4.0086    0.5961    8.5164 H         1 <0>         0.0366
     57 H22         3.2450    1.8489    7.5186 H         1 <0>         0.0474
     58 H23         2.4156   -3.1229    2.0318 H         1 <0>         0.0800
     59 H24         1.9949   -4.6013    2.9028 H         1 <0>         0.0681
     60 H25        -0.3448   -4.4577    2.0448 H         1 <0>         0.0740
     61 H26         0.0666   -3.0218    1.1158 H         1 <0>         0.0631
     62 H27         3.1472   -5.1474    0.7729 H         1 <0>         0.0970
     63 H28         1.9091   -4.2592   -0.1301 H         1 <0>         0.0725
     64 H29         0.1003   -3.1895    4.1787 H         1 <0>         0.0839
     65 H30        -3.3042   -1.4652    4.9522 H         1 <0>         0.4531
     66 H31        -0.1107   -8.3043    0.3321 H         1 <0>         0.4798
     67 H32         0.6091   -8.7303   -1.1889 H         1 <0>         0.4881
     68 H33         2.8285   -5.8692   -1.4068 H         1 <0>         0.4801
     69 H34         2.3056   -7.3283   -2.1978 H         1 <0>         0.4806
     70 H35         0.6129   -6.2511    1.4553 H         1 <0>         0.4689
     71 H36        -1.5021   -1.1633    3.3956 H         1 <0>         0.4505
     72 H37         1.7734   -4.7586    6.9424 H         1 <0>         0.4443
@<TRIPOS>BOND
     1    1    2 ar
     2    1    3 ar
     3    2    4 ar
     4    3    6 ar
     5    4    5 ar
     6    4   10 1
     7    5    6 ar
     8    5   24 1
     9    6   35 1
    10    7   15 1
    11    7   30 2
    12    7   34 1
    13    8   23 1
    14    8   25 am
    15    8   31 2
    16    9   26 1
    17    9   27 1
    18    9   28 1
    19   10   16 1
    20   11   13 1
    21   11   17 1
    22   12   15 1
    23   12   17 1
    24   13   25 1
    25   14   16 1
    26   14   24 1
    27   15   25 1
    28   16   18 1
    29   17   19 1
    30   20   21 1
    31   20   22 1
    32   21   23 1
    33   22   28 1
    34   23   29 1
    35   29   35 1
    36   32   35 2
    37   33   35 2
    38    1   36 1
    39    2   37 1
    40    3   38 1
    41   10   39 1
    42   10   40 1
    43   11   41 1
    44   11   42 1
    45   12   43 1
    46   12   44 1
    47   13   45 1
    48   13   46 1
    49   14   47 1
    50   14   48 1
    51   15   49 1
    52   16   50 1
    53   17   51 1
    54   18   52 1
    55   18   53 1
    56   18   54 1
    57   19   55 1
    58   19   56 1
    59   19   57 1
    60   20   58 1
    61   20   59 1
    62   21   60 1
    63   21   61 1
    64   22   62 1
    65   22   63 1
    66   23   64 1
    67   24   65 1
    68   26   66 1
    69   26   67 1
    70   27   68 1
    71   27   69 1
    72   28   70 1
    73   29   71 1
    74   34   72 1
@<TRIPOS>MOLECULE
1dwc_ligand_26
   72    74     0     0     0
SMALL
USER_CHARGES

mmff94s_NoEstat = 74.67
@<TRIPOS>ATOM
      1 C1         -0.5687   -1.8484    7.8285 C.ar      1 <0>        -0.1945
      2 C2         -0.3952   -0.4679    7.9011 C.ar      1 <0>        -0.0294
      3 C3         -1.2191   -2.4094    6.7334 C.ar      1 <0>        -0.0143
      4 C4         -0.8690    0.3609    6.8741 C.ar      1 <0>        -0.1552
      5 C5         -1.5541   -0.1965    5.7761 C.ar      1 <0>         0.3076
      6 C6         -1.7052   -1.5894    5.7138 C.ar      1 <0>        -0.4908
      7 C7          3.6572    0.2351    4.2205 C.2       1 <0>         0.5994
      8 C8          0.8654   -1.4427    3.2413 C.2       1 <0>         0.6462
      9 C9          1.7699   -7.1193    0.0630 C.cat     1 <0>         0.6305
     10 C10        -0.6787    1.8556    6.9729 C.3       1 <0>        -0.0319
     11 C11         3.8985   -3.4862    3.6166 C.3       1 <0>        -0.0918
     12 C12         4.5525   -1.3270    2.5319 C.3       1 <0>        -0.0841
     13 C13         2.6738   -2.8056    4.2145 C.3       1 <0>         0.0870
     14 C14        -2.0484    2.0439    4.8813 C.3       1 <0>         0.2023
     15 C15         3.2751   -0.6689    3.0601 C.3       1 <0>         0.0778
     16 C16        -0.7810    2.5267    5.5942 C.3       1 <0>        -0.0746
     17 C17         5.0385   -2.4845    3.4144 C.3       1 <0>        -0.0681
     18 C18        -0.7731    4.0470    5.7280 C.3       1 <0>        -0.0944
     19 C19         6.2563   -3.1661    2.7936 C.3       1 <0>        -0.0918
     20 C20        -0.5404   -4.8511    2.0458 C.3       1 <0>        -0.1192
     21 C21         0.3004   -3.5693    2.0376 C.3       1 <0>        -0.0916
     22 C22        -0.1768   -5.7847    0.8978 C.3       1 <0>         0.1883
     23 C23        -0.0078   -2.6730    3.2260 C.3       1 <0>         0.1952
     24 N1         -2.0339    0.5998    4.7435 N.pl3     1 <0>        -0.7670
     25 N2          2.2374   -1.6470    3.4280 N.am      1 <0>        -0.4509
     26 N3          3.1011   -7.5120    0.1550 N.pl3     1 <0>        -0.8477
     27 N4          0.9786   -7.6393   -0.9556 N.pl3     1 <0>        -0.8633
     28 N5          1.2122   -6.2141    0.9723 N.pl3     1 <0>        -0.7419
     29 N6         -1.3760   -2.1385    3.1042 N.pl3     1 <0>        -0.8860
     30 O1          4.4823    1.1350    4.1670 O.2       1 <0>        -0.5199
     31 O2          0.3435   -0.3338    3.0981 O.2       1 <0>        -0.6131
     32 O3         -2.5906   -3.7967    4.6561 O.2       1 <0>        -0.6576
     33 O4         -3.7019   -1.6181    4.0705 O.2       1 <0>        -0.6482
     34 O5          2.9574   -0.0934    5.3339 O.3       1 <0>        -0.6303
     35 S1         -2.5018   -2.3799    4.3583 S.o2      1 <0>         1.5193
     36 H1         -0.1935   -2.4863    8.6241 H         1 <0>         0.1426
     37 H2          0.1168   -0.0386    8.7590 H         1 <0>         0.1398
     38 H3         -1.3546   -3.4839    6.6632 H         1 <0>         0.1599
     39 H4         -1.4443    2.2564    7.6493 H         1 <0>         0.0574
     40 H5          0.3029    2.0794    7.4083 H         1 <0>         0.0629
     41 H6          4.2244   -4.2993    4.2761 H         1 <0>         0.0614
     42 H7          3.6296   -3.9402    2.6542 H         1 <0>         0.0593
     43 H8          4.3500   -1.7152    1.5243 H         1 <0>         0.0841
     44 H9          5.3525   -0.5834    2.4253 H         1 <0>         0.0679
     45 H10         1.8623   -3.5349    4.3059 H         1 <0>         0.0826
     46 H11         2.8945   -2.4435    5.2260 H         1 <0>         0.0383
     47 H12        -2.9433    2.3470    5.4389 H         1 <0>         0.0556
     48 H13        -2.1184    2.4959    3.8856 H         1 <0>         0.0415
     49 H14         2.8873    0.0006    2.2858 H         1 <0>         0.0851
     50 H15         0.0923    2.2358    4.9947 H         1 <0>         0.0639
     51 H16         5.3432   -2.0892    4.3913 H         1 <0>         0.0584
     52 H17        -0.6000    4.5176    4.7555 H         1 <0>         0.0401
     53 H18        -1.7312    4.4037    6.1178 H         1 <0>         0.0440
     54 H19         0.0183    4.3685    6.4117 H         1 <0>         0.0459
     55 H20         6.5585   -2.6519    1.8763 H         1 <0>         0.0456
     56 H21         7.1004   -3.1536    3.4896 H         1 <0>         0.0366
     57 H22         6.0293   -4.2073    2.5458 H         1 <0>         0.0474
     58 H23        -0.4002   -5.3741    2.9994 H         1 <0>         0.0800
     59 H24        -1.6035   -4.5964    1.9658 H         1 <0>         0.0681
     60 H25         0.1357   -3.0322    1.0943 H         1 <0>         0.0740
     61 H26         1.3654   -3.8328    2.0643 H         1 <0>         0.0631
     62 H27        -0.3350   -5.3004   -0.0711 H         1 <0>         0.0970
     63 H28        -0.8024   -6.6822    0.9336 H         1 <0>         0.0725
     64 H29         0.1003   -3.1895    4.1787 H         1 <0>         0.0839
     65 H30        -2.5847    0.1629    4.0147 H         1 <0>         0.4531
     66 H31         3.7173   -7.1568    0.8813 H         1 <0>         0.4798
     67 H32         3.4989   -8.1703   -0.5108 H         1 <0>         0.4881
     68 H33         0.0016   -7.3736   -1.0521 H         1 <0>         0.4801
     69 H34         1.3562   -8.3001   -1.6305 H         1 <0>         0.4806
     70 H35         1.8180   -5.8498    1.7091 H         1 <0>         0.4689
     71 H36        -1.4850   -1.3266    2.4871 H         1 <0>         0.4505
     72 H37         3.1915    0.4784    6.0959 H         1 <0>         0.4443
@<TRIPOS>BOND
     1    1    2 ar
     2    1    3 ar
     3    2    4 ar
     4    3    6 ar
     5    4    5 ar
     6    4   10 1
     7    5    6 ar
     8    5   24 1
     9    6   35 1
    10    7   15 1
    11    7   30 2
    12    7   34 1
    13    8   23 1
    14    8   25 am
    15    8   31 2
    16    9   26 1
    17    9   27 1
    18    9   28 1
    19   10   16 1
    20   11   13 1
    21   11   17 1
    22   12   15 1
    23   12   17 1
    24   13   25 1
    25   14   16 1
    26   14   24 1
    27   15   25 1
    28   16   18 1
    29   17   19 1
    30   20   21 1
    31   20   22 1
    32   21   23 1
    33   22   28 1
    34   23   29 1
    35   29   35 1
    36   32   35 2
    37   33   35 2
    38    1   36 1
    39    2   37 1
    40    3   38 1
    41   10   39 1
    42   10   40 1
    43   11   41 1
    44   11   42 1
    45   12   43 1
    46   12   44 1
    47   13   45 1
    48   13   46 1
    49   14   47 1
    50   14   48 1
    51   15   49 1
    52   16   50 1
    53   17   51 1
    54   18   52 1
    55   18   53 1
    56   18   54 1
    57   19   55 1
    58   19   56 1
    59   19   57 1
    60   20   58 1
    61   20   59 1
    62   21   60 1
    63   21   61 1
    64   22   62 1
    65   22   63 1
    66   23   64 1
    67   24   65 1
    68   26   66 1
    69   26   67 1
    70   27   68 1
    71   27   69 1
    72   28   70 1
    73   29   71 1
    74   34   72 1
@<TRIPOS>MOLECULE
1dwc_ligand_27
   72    74     0     0     0
SMALL
USER_CHARGES

mmff94s_NoEstat = 74.70
@<TRIPOS>ATOM
      1 C1          2.5116   -3.9380   -0.5557 C.ar      1 <0>        -0.1945
      2 C2          3.7426   -3.3274   -0.3259 C.ar      1 <0>        -0.0294
      3 C3          1.7913   -4.4690    0.5101 C.ar      1 <0>        -0.0143
      4 C4          4.2632   -3.2477    0.9738 C.ar      1 <0>        -0.1552
      5 C5          3.5271   -3.7571    2.0614 C.ar      1 <0>         0.3076
      6 C6          2.2973   -4.3819    1.8081 C.ar      1 <0>        -0.4908
      7 C7         -1.2359   -0.6984    0.6725 C.2       1 <0>         0.5994
      8 C8          0.8654   -1.4427    3.2413 C.2       1 <0>         0.6462
      9 C9         -5.1550   -2.5406    2.8628 C.cat     1 <0>         0.6305
     10 C10         5.5952   -2.5748    1.2036 C.3       1 <0>        -0.0319
     11 C11         1.8315    1.4466    1.1834 C.3       1 <0>        -0.0918
     12 C12         0.9831   -0.3423   -0.3484 C.3       1 <0>        -0.0841
     13 C13         1.0260    0.8397    2.3251 C.3       1 <0>         0.0870
     14 C14         5.1895   -2.8951    3.6625 C.3       1 <0>         0.2023
     15 C15         0.2462   -1.0009    0.8207 C.3       1 <0>         0.0778
     16 C16         6.2338   -2.9744    2.5437 C.3       1 <0>        -0.0746
     17 C17         1.1635    1.1707   -0.1661 C.3       1 <0>        -0.0681
     18 C18         6.8920   -4.3571    2.4737 C.3       1 <0>        -0.0944
     19 C19         1.9862    1.7609   -1.3098 C.3       1 <0>        -0.0918
     20 C20        -2.2331   -3.6727    3.9110 C.3       1 <0>        -0.1192
     21 C21        -1.3133   -2.4479    3.9716 C.3       1 <0>        -0.0916
     22 C22        -3.5726   -3.4201    4.5920 C.3       1 <0>         0.1883
     23 C23        -0.0078   -2.6730    3.2260 C.3       1 <0>         0.1952
     24 N1          4.0208   -3.6991    3.3587 N.pl3     1 <0>        -0.7670
     25 N2          0.7744   -0.5925    2.1333 N.am      1 <0>        -0.4509
     26 N3         -5.8450   -1.4865    2.2730 N.pl3     1 <0>        -0.8477
     27 N4         -5.3158   -3.8250    2.3544 N.pl3     1 <0>        -0.8633
     28 N5         -4.3046   -2.3352    3.9546 N.pl3     1 <0>        -0.7419
     29 N6          0.7961   -3.6905    3.9267 N.pl3     1 <0>        -0.8860
     30 O1         -1.8192    0.2321    1.2084 O.2       1 <0>        -0.5199
     31 O2          1.6103   -1.2468    4.2054 O.2       1 <0>        -0.6131
     32 O3          0.1838   -5.7392    2.4909 O.2       1 <0>        -0.6576
     33 O4          2.2286   -5.8263    3.9523 O.2       1 <0>        -0.6482
     34 O5         -1.8312   -1.6071   -0.1380 O.3       1 <0>        -0.6303
     35 S1          1.3247   -5.0804    3.0977 S.o2      1 <0>         1.5193
     36 H1          2.1160   -4.0026   -1.5657 H         1 <0>         0.1426
     37 H2          4.2999   -2.9178   -1.1651 H         1 <0>         0.1398
     38 H3          0.8339   -4.9524    0.3425 H         1 <0>         0.1599
     39 H4          6.2849   -2.8099    0.3837 H         1 <0>         0.0574
     40 H5          5.4270   -1.4903    1.1935 H         1 <0>         0.0629
     41 H6          1.9320    2.5271    1.3399 H         1 <0>         0.0614
     42 H7          2.8448    1.0248    1.1881 H         1 <0>         0.0593
     43 H8          1.9753   -0.8057   -0.4365 H         1 <0>         0.0841
     44 H9          0.4607   -0.5403   -1.2930 H         1 <0>         0.0679
     45 H10         1.5496    1.0140    3.2709 H         1 <0>         0.0826
     46 H11         0.0484    1.3304    2.4051 H         1 <0>         0.0383
     47 H12         5.6214   -3.2300    4.6122 H         1 <0>         0.0556
     48 H13         4.8765   -1.8531    3.8022 H         1 <0>         0.0415
     49 H14         0.3330   -2.0869    0.7143 H         1 <0>         0.0851
     50 H15         7.0369   -2.2610    2.7660 H         1 <0>         0.0639
     51 H16         0.1795    1.6553   -0.1825 H         1 <0>         0.0584
     52 H17         6.6629   -4.8441    1.5211 H         1 <0>         0.0401
     53 H18         7.9790   -4.2705    2.5637 H         1 <0>         0.0440
     54 H19         6.5291   -4.9970    3.2836 H         1 <0>         0.0459
     55 H20         1.9407    1.1129   -2.1902 H         1 <0>         0.0456
     56 H21         1.6048    2.7479   -1.5883 H         1 <0>         0.0366
     57 H22         3.0342    1.8673   -1.0143 H         1 <0>         0.0474
     58 H23        -2.4032   -3.9506    2.8639 H         1 <0>         0.0800
     59 H24        -1.7473   -4.5245    4.4007 H         1 <0>         0.0681
     60 H25        -1.1204   -2.1894    5.0211 H         1 <0>         0.0740
     61 H26        -1.8263   -1.5854    3.5275 H         1 <0>         0.0631
     62 H27        -3.4379   -3.1690    5.6489 H         1 <0>         0.0970
     63 H28        -4.1962   -4.3179    4.5344 H         1 <0>         0.0725
     64 H29        -0.1638   -2.9774    2.1921 H         1 <0>         0.0839
     65 H30         3.4221   -4.0102    4.1139 H         1 <0>         0.4531
     66 H31        -5.7600   -0.5320    2.6119 H         1 <0>         0.4798
     67 H32        -6.4620   -1.6448    1.4797 H         1 <0>         0.4881
     68 H33        -4.8265   -4.6183    2.7616 H         1 <0>         0.4801
     69 H34        -5.9263   -4.0045    1.5608 H         1 <0>         0.4806
     70 H35        -4.2070   -1.3812    4.3054 H         1 <0>         0.4689
     71 H36         1.3354   -3.3564    4.7325 H         1 <0>         0.4505
     72 H37        -2.7902   -1.4300   -0.2450 H         1 <0>         0.4443
@<TRIPOS>BOND
     1    1    2 ar
     2    1    3 ar
     3    2    4 ar
     4    3    6 ar
     5    4    5 ar
     6    4   10 1
     7    5    6 ar
     8    5   24 1
     9    6   35 1
    10    7   15 1
    11    7   30 2
    12    7   34 1
    13    8   23 1
    14    8   25 am
    15    8   31 2
    16    9   26 1
    17    9   27 1
    18    9   28 1
    19   10   16 1
    20   11   13 1
    21   11   17 1
    22   12   15 1
    23   12   17 1
    24   13   25 1
    25   14   16 1
    26   14   24 1
    27   15   25 1
    28   16   18 1
    29   17   19 1
    30   20   21 1
    31   20   22 1
    32   21   23 1
    33   22   28 1
    34   23   29 1
    35   29   35 1
    36   32   35 2
    37   33   35 2
    38    1   36 1
    39    2   37 1
    40    3   38 1
    41   10   39 1
    42   10   40 1
    43   11   41 1
    44   11   42 1
    45   12   43 1
    46   12   44 1
    47   13   45 1
    48   13   46 1
    49   14   47 1
    50   14   48 1
    51   15   49 1
    52   16   50 1
    53   17   51 1
    54   18   52 1
    55   18   53 1
    56   18   54 1
    57   19   55 1
    58   19   56 1
    59   19   57 1
    60   20   58 1
    61   20   59 1
    62   21   60 1
    63   21   61 1
    64   22   62 1
    65   22   63 1
    66   23   64 1
    67   24   65 1
    68   26   66 1
    69   26   67 1
    70   27   68 1
    71   27   69 1
    72   28   70 1
    73   29   71 1
    74   34   72 1
@<TRIPOS>MOLECULE
1dwc_ligand_28
   72    74     0     0     0
SMALL
USER_CHARGES

mmff94s_NoEstat = 74.76
@<TRIPOS>ATOM
      1 C1          4.9869   -2.2156    2.0944 C.ar      1 <0>        -0.1945
      2 C2          5.6791   -2.0613    3.2937 C.ar      1 <0>        -0.0294
      3 C3          3.8430   -3.0069    2.0508 C.ar      1 <0>        -0.0143
      4 C4          5.2320   -2.7022    4.4581 C.ar      1 <0>        -0.1552
      5 C5          4.0589   -3.4815    4.4288 C.ar      1 <0>         0.3076
      6 C6          3.3849   -3.6375    3.2088 C.ar      1 <0>        -0.4908
      7 C7         -1.4628    0.1636    1.3526 C.2       1 <0>         0.5994
      8 C8          0.8654   -1.4427    3.2413 C.2       1 <0>         0.6462
      9 C9         -5.6874   -4.6342    5.1589 C.cat     1 <0>         0.6305
     10 C10         5.9911   -2.5161    5.7500 C.3       1 <0>        -0.0319
     11 C11         2.1918    0.8805    0.7195 C.3       1 <0>        -0.0918
     12 C12         0.2821   -0.3679   -0.3105 C.3       1 <0>        -0.0841
     13 C13         1.6113    0.6116    2.1020 C.3       1 <0>         0.0870
     14 C14         4.1652   -3.8339    6.8649 C.3       1 <0>         0.2023
     15 C15        -0.2506   -0.7126    1.0828 C.3       1 <0>         0.0778
     16 C16         5.6794   -3.6141    6.7799 C.3       1 <0>        -0.0746
     17 C17         1.0859    0.9390   -0.3376 C.3       1 <0>        -0.0681
     18 C18         6.4292   -4.9155    6.4729 C.3       1 <0>        -0.0944
     19 C19         1.6740    1.1859   -1.7255 C.3       1 <0>        -0.0918
     20 C20        -2.2331   -3.6727    3.9110 C.3       1 <0>        -0.1192
     21 C21        -1.3133   -2.4479    3.9716 C.3       1 <0>        -0.0916
     22 C22        -3.5726   -3.4201    4.5920 C.3       1 <0>         0.1883
     23 C23        -0.0078   -2.6730    3.2260 C.3       1 <0>         0.1952
     24 N1          3.5964   -4.1342    5.5646 N.pl3     1 <0>        -0.7670
     25 N2          0.7744   -0.5925    2.1333 N.am      1 <0>        -0.4509
     26 N3         -6.4864   -5.7715    5.1030 N.pl3     1 <0>        -0.8477
     27 N4         -6.1529   -3.5113    5.8344 N.pl3     1 <0>        -0.8633
     28 N5         -4.4280   -4.5974    4.5508 N.pl3     1 <0>        -0.7419
     29 N6          0.7961   -3.6905    3.9267 N.pl3     1 <0>        -0.8860
     30 O1         -1.4385    1.2323    1.9447 O.2       1 <0>        -0.5199
     31 O2          1.6103   -1.2468    4.2054 O.2       1 <0>        -0.6131
     32 O3          1.5564   -4.6635    1.6664 O.2       1 <0>        -0.6576
     33 O4          2.1832   -5.8521    3.7922 O.2       1 <0>        -0.6482
     34 O5         -2.5854   -0.4037    0.8474 O.3       1 <0>        -0.6303
     35 S1          1.9328   -4.6215    3.0666 S.o2      1 <0>         1.5193
     36 H1          5.3415   -1.7217    1.1937 H         1 <0>         0.1426
     37 H2          6.5736   -1.4435    3.3177 H         1 <0>         0.1398
     38 H3          3.2989   -3.1393    1.1209 H         1 <0>         0.1599
     39 H4          7.0702   -2.4911    5.5552 H         1 <0>         0.0574
     40 H5          5.7075   -1.5407    6.1657 H         1 <0>         0.0629
     41 H6          2.7495    1.8244    0.7335 H         1 <0>         0.0614
     42 H7          2.9066    0.0878    0.4640 H         1 <0>         0.0593
     43 H8          0.9336   -1.1873   -0.6438 H         1 <0>         0.0841
     44 H9         -0.5414   -0.3095   -1.0336 H         1 <0>         0.0679
     45 H10         2.4269    0.5309    2.8282 H         1 <0>         0.0826
     46 H11         0.9807    1.4504    2.4206 H         1 <0>         0.0383
     47 H12         3.9365   -4.6520    7.5569 H         1 <0>         0.0556
     48 H13         3.6831   -2.9326    7.2632 H         1 <0>         0.0415
     49 H14        -0.6325   -1.7382    1.0612 H         1 <0>         0.0851
     50 H15         6.0375   -3.2752    7.7599 H         1 <0>         0.0639
     51 H16         0.4173    1.7778   -0.1080 H         1 <0>         0.0584
     52 H17         6.9364   -4.8479    5.5058 H         1 <0>         0.0401
     53 H18         7.1802   -5.1172    7.2425 H         1 <0>         0.0440
     54 H19         5.7348   -5.7603    6.4392 H         1 <0>         0.0459
     55 H20         1.1081    0.6390   -2.4855 H         1 <0>         0.0456
     56 H21         1.6425    2.2512   -1.9725 H         1 <0>         0.0366
     57 H22         2.7156    0.8534   -1.7662 H         1 <0>         0.0474
     58 H23        -2.4032   -3.9506    2.8639 H         1 <0>         0.0800
     59 H24        -1.7473   -4.5245    4.4007 H         1 <0>         0.0681
     60 H25        -1.1204   -2.1894    5.0211 H         1 <0>         0.0740
     61 H26        -1.8263   -1.5854    3.5275 H         1 <0>         0.0631
     62 H27        -4.1071   -2.5906    4.1183 H         1 <0>         0.0970
     63 H28        -3.4143   -3.1637    5.6444 H         1 <0>         0.0725
     64 H29        -0.1638   -2.9774    2.1921 H         1 <0>         0.0839
     65 H30         2.7093   -4.6197    5.5108 H         1 <0>         0.4531
     66 H31        -6.1885   -6.6144    4.6191 H         1 <0>         0.4798
     67 H32        -7.4014   -5.7896    5.5474 H         1 <0>         0.4881
     68 H33        -5.5947   -2.6632    5.8946 H         1 <0>         0.4801
     69 H34        -7.0638   -3.5091    6.2870 H         1 <0>         0.4806
     70 H35        -4.1136   -5.4373    4.0624 H         1 <0>         0.4689
     71 H36         0.9382   -3.5340    4.9302 H         1 <0>         0.4505
     72 H37        -3.3805    0.1466    1.0133 H         1 <0>         0.4443
@<TRIPOS>BOND
     1    1    2 ar
     2    1    3 ar
     3    2    4 ar
     4    3    6 ar
     5    4    5 ar
     6    4   10 1
     7    5    6 ar
     8    5   24 1
     9    6   35 1
    10    7   15 1
    11    7   30 2
    12    7   34 1
    13    8   23 1
    14    8   25 am
    15    8   31 2
    16    9   26 1
    17    9   27 1
    18    9   28 1
    19   10   16 1
    20   11   13 1
    21   11   17 1
    22   12   15 1
    23   12   17 1
    24   13   25 1
    25   14   16 1
    26   14   24 1
    27   15   25 1
    28   16   18 1
    29   17   19 1
    30   20   21 1
    31   20   22 1
    32   21   23 1
    33   22   28 1
    34   23   29 1
    35   29   35 1
    36   32   35 2
    37   33   35 2
    38    1   36 1
    39    2   37 1
    40    3   38 1
    41   10   39 1
    42   10   40 1
    43   11   41 1
    44   11   42 1
    45   12   43 1
    46   12   44 1
    47   13   45 1
    48   13   46 1
    49   14   47 1
    50   14   48 1
    51   15   49 1
    52   16   50 1
    53   17   51 1
    54   18   52 1
    55   18   53 1
    56   18   54 1
    57   19   55 1
    58   19   56 1
    59   19   57 1
    60   20   58 1
    61   20   59 1
    62   21   60 1
    63   21   61 1
    64   22   62 1
    65   22   63 1
    66   23   64 1
    67   24   65 1
    68   26   66 1
    69   26   67 1
    70   27   68 1
    71   27   69 1
    72   28   70 1
    73   29   71 1
    74   34   72 1
@<TRIPOS>MOLECULE
1dwc_ligand_29
   72    74     0     0     0
SMALL
USER_CHARGES

mmff94s_NoEstat = 74.85
@<TRIPOS>ATOM
      1 C1         -1.5516   -4.4277    7.3298 C.ar      1 <0>        -0.1945
      2 C2         -2.3348   -5.5104    6.9352 C.ar      1 <0>        -0.0294
      3 C3         -1.5385   -3.2654    6.5644 C.ar      1 <0>        -0.0143
      4 C4         -3.1142   -5.4347    5.7720 C.ar      1 <0>        -0.1552
      5 C5         -3.0840   -4.2723    4.9761 C.ar      1 <0>         0.3076
      6 C6         -2.3015   -3.1877    5.3982 C.ar      1 <0>        -0.4908
      7 C7          2.9525   -3.7210    4.6633 C.2       1 <0>         0.5994
      8 C8          0.8654   -1.4427    3.2413 C.2       1 <0>         0.6462
      9 C9         -0.0382   -5.7761   -1.6019 C.cat     1 <0>         0.6305
     10 C10        -3.9512   -6.6204    5.3554 C.3       1 <0>        -0.0319
     11 C11         3.8997   -0.0663    4.7953 C.3       1 <0>        -0.0918
     12 C12         3.0155   -1.8674    6.2922 C.3       1 <0>        -0.0841
     13 C13         3.1900   -0.7124    3.6122 C.3       1 <0>         0.0870
     14 C14        -4.5113   -5.3376    3.2753 C.3       1 <0>         0.2023
     15 C15         2.2314   -2.4635    5.1202 C.3       1 <0>         0.0778
     16 C16        -5.0831   -6.2018    4.4040 C.3       1 <0>        -0.0746
     17 C17         4.2756   -1.1130    5.8473 C.3       1 <0>        -0.0681
     18 C18        -5.8039   -7.4257    3.8454 C.3       1 <0>        -0.0944
     19 C19         4.9663   -0.4582    7.0420 C.3       1 <0>        -0.0918
     20 C20        -0.5404   -4.8511    2.0458 C.3       1 <0>        -0.1192
     21 C21         0.3004   -3.5693    2.0376 C.3       1 <0>        -0.0916
     22 C22        -0.1768   -5.7847    0.8978 C.3       1 <0>         0.1883
     23 C23        -0.0078   -2.6730    3.2260 C.3       1 <0>         0.1952
     24 N1         -3.8463   -4.1684    3.8190 N.pl3     1 <0>        -0.7670
     25 N2          2.0252   -1.5038    4.0223 N.am      1 <0>        -0.4509
     26 N3         -0.2239   -5.1414   -2.8257 N.pl3     1 <0>        -0.8477
     27 N4          0.4773   -7.0675   -1.5794 N.pl3     1 <0>        -0.8633
     28 N5         -0.3589   -5.1430   -0.3963 N.pl3     1 <0>        -0.7419
     29 N6         -1.3760   -2.1385    3.1042 N.pl3     1 <0>        -0.8860
     30 O1          3.7741   -3.7699    3.7601 O.2       1 <0>        -0.5199
     31 O2          0.5240   -0.4555    2.5844 O.2       1 <0>        -0.6131
     32 O3         -3.5960   -1.3232    4.1243 O.2       1 <0>        -0.6576
     33 O4         -1.4314   -0.7555    5.2719 O.2       1 <0>        -0.6482
     34 O5          2.5581   -4.7916    5.3952 O.3       1 <0>        -0.6303
     35 S1         -2.2397   -1.6774    4.4970 S.o2      1 <0>         1.5193
     36 H1         -0.9549   -4.4896    8.2356 H         1 <0>         0.1426
     37 H2         -2.3412   -6.4135    7.5409 H         1 <0>         0.1398
     38 H3         -0.9370   -2.4135    6.8653 H         1 <0>         0.1599
     39 H4         -3.2943   -7.3516    4.8675 H         1 <0>         0.0574
     40 H5         -4.3865   -7.1001    6.2407 H         1 <0>         0.0629
     41 H6          4.7987    0.4538    4.4437 H         1 <0>         0.0614
     42 H7          3.2442    0.6909    5.2441 H         1 <0>         0.0593
     43 H8          2.3586   -1.1679    6.8273 H         1 <0>         0.0841
     44 H9          3.2888   -2.6509    7.0104 H         1 <0>         0.0679
     45 H10         2.8945    0.0639    2.8988 H         1 <0>         0.0826
     46 H11         3.8704   -1.3909    3.0835 H         1 <0>         0.0383
     47 H12        -3.7986   -5.9137    2.6721 H         1 <0>         0.0556
     48 H13        -5.3138   -5.0110    2.6047 H         1 <0>         0.0415
     49 H14         1.2607   -2.8048    5.4936 H         1 <0>         0.0851
     50 H15        -5.8148   -5.6064    4.9667 H         1 <0>         0.0639
     51 H16         4.9839   -1.8245    5.4052 H         1 <0>         0.0584
     52 H17        -6.7464   -7.1341    3.3725 H         1 <0>         0.0401
     53 H18        -5.1841   -7.9286    3.0971 H         1 <0>         0.0440
     54 H19        -6.0259   -8.1390    4.6448 H         1 <0>         0.0459
     55 H20         4.4464   -0.7091    7.9715 H         1 <0>         0.0456
     56 H21         6.0020   -0.8015    7.1231 H         1 <0>         0.0366
     57 H22         4.9717    0.6305    6.9335 H         1 <0>         0.0474
     58 H23        -0.4002   -5.3741    2.9994 H         1 <0>         0.0800
     59 H24        -1.6035   -4.5964    1.9658 H         1 <0>         0.0681
     60 H25         0.1357   -3.0322    1.0943 H         1 <0>         0.0740
     61 H26         1.3654   -3.8328    2.0643 H         1 <0>         0.0631
     62 H27        -0.7862   -6.6937    0.9190 H         1 <0>         0.0970
     63 H28         0.8744   -6.0800    0.9749 H         1 <0>         0.0725
     64 H29         0.1003   -3.1895    4.1787 H         1 <0>         0.0839
     65 H30        -3.7341   -3.3447    3.2409 H         1 <0>         0.4531
     66 H31        -0.5995   -4.1991   -2.8910 H         1 <0>         0.4798
     67 H32         0.0114   -5.6094   -3.6979 H         1 <0>         0.4881
     68 H33         0.6256   -7.5607   -0.7023 H         1 <0>         0.4801
     69 H34         0.7207   -7.5524   -2.4398 H         1 <0>         0.4806
     70 H35        -0.7354   -4.1951   -0.4451 H         1 <0>         0.4689
     71 H36        -1.6042   -1.6955    2.2078 H         1 <0>         0.4505
     72 H37         3.0115   -5.6147    5.1139 H         1 <0>         0.4443
@<TRIPOS>BOND
     1    1    2 ar
     2    1    3 ar
     3    2    4 ar
     4    3    6 ar
     5    4    5 ar
     6    4   10 1
     7    5    6 ar
     8    5   24 1
     9    6   35 1
    10    7   15 1
    11    7   30 2
    12    7   34 1
    13    8   23 1
    14    8   25 am
    15    8   31 2
    16    9   26 1
    17    9   27 1
    18    9   28 1
    19   10   16 1
    20   11   13 1
    21   11   17 1
    22   12   15 1
    23   12   17 1
    24   13   25 1
    25   14   16 1
    26   14   24 1
    27   15   25 1
    28   16   18 1
    29   17   19 1
    30   20   21 1
    31   20   22 1
    32   21   23 1
    33   22   28 1
    34   23   29 1
    35   29   35 1
    36   32   35 2
    37   33   35 2
    38    1   36 1
    39    2   37 1
    40    3   38 1
    41   10   39 1
    42   10   40 1
    43   11   41 1
    44   11   42 1
    45   12   43 1
    46   12   44 1
    47   13   45 1
    48   13   46 1
    49   14   47 1
    50   14   48 1
    51   15   49 1
    52   16   50 1
    53   17   51 1
    54   18   52 1
    55   18   53 1
    56   18   54 1
    57   19   55 1
    58   19   56 1
    59   19   57 1
    60   20   58 1
    61   20   59 1
    62   21   60 1
    63   21   61 1
    64   22   62 1
    65   22   63 1
    66   23   64 1
    67   24   65 1
    68   26   66 1
    69   26   67 1
    70   27   68 1
    71   27   69 1
    72   28   70 1
    73   29   71 1
    74   34   72 1
@<TRIPOS>MOLECULE
1dwc_ligand_30
   72    74     0     0     0
SMALL
USER_CHARGES

mmff94s_NoEstat = 74.85
@<TRIPOS>ATOM
      1 C1          2.9804   -6.8364   -3.8826 C.ar      1 <0>        -0.1945
      2 C2          2.9418   -6.7056   -5.2692 C.ar      1 <0>        -0.0294
      3 C3          2.4346   -5.8419   -3.0764 C.ar      1 <0>        -0.0143
      4 C4          2.3519   -5.5783   -5.8586 C.ar      1 <0>        -0.1552
      5 C5          1.8230   -4.5534   -5.0490 C.ar      1 <0>         0.3076
      6 C6          1.8576   -4.7107   -3.6559 C.ar      1 <0>        -0.4908
      7 C7          1.8102   -1.5505    2.3702 C.2       1 <0>         0.5994
      8 C8          2.9466   -1.3973   -0.6457 C.2       1 <0>         0.6462
      9 C9          6.8021   -5.4466   -4.4355 C.cat     1 <0>         0.6305
     10 C10         2.3255   -5.4497   -7.3628 C.3       1 <0>        -0.0319
     11 C11         4.4920   -3.4807    2.0801 C.3       1 <0>        -0.0918
     12 C12         4.1798   -1.0721    2.8769 C.3       1 <0>        -0.0841
     13 C13         4.5658   -2.7774    0.7291 C.3       1 <0>         0.0870
     14 C14         1.3521   -3.1637   -7.0268 C.3       1 <0>         0.2023
     15 C15         3.1125   -1.0286    1.7861 C.3       1 <0>         0.0778
     16 C16         1.2367   -4.4677   -7.8231 C.3       1 <0>        -0.0746
     17 C17         4.5869   -2.5050    3.2643 C.3       1 <0>        -0.0681
     18 C18         1.3410   -4.2047   -9.3229 C.3       1 <0>        -0.0944
     19 C19         5.9882   -2.5079    3.8779 C.3       1 <0>        -0.0918
     20 C20         5.1203   -2.1076   -3.7746 C.3       1 <0>        -0.1192
     21 C21         4.5564   -1.3488   -2.5679 C.3       1 <0>        -0.0916
     22 C22         5.6479   -3.4850   -3.3924 C.3       1 <0>         0.1883
     23 C23         3.4544   -2.1251   -1.8653 C.3       1 <0>         0.1952
     24 N1          1.2318   -3.4255   -5.6050 N.pl3     1 <0>        -0.7670
     25 N2          3.5192   -1.7560    0.5781 N.am      1 <0>        -0.4509
     26 N3          7.3239   -6.0965   -5.5492 N.pl3     1 <0>        -0.8477
     27 N4          6.8782   -6.0650   -3.1922 N.pl3     1 <0>        -0.8633
     28 N5          6.2038   -4.1863   -4.5407 N.pl3     1 <0>        -0.7419
     29 N6          2.2741   -2.2179   -2.7432 N.pl3     1 <0>        -0.8860
     30 O1          1.2492   -1.0925    3.3546 O.2       1 <0>        -0.5199
     31 O2          2.0685   -0.5400   -0.7710 O.2       1 <0>        -0.6131
     32 O3         -0.1165   -3.1121   -3.0880 O.2       1 <0>        -0.6576
     33 O4          1.2896   -4.0436   -1.2226 O.2       1 <0>        -0.6482
     34 O5          1.3501   -2.6026    1.6500 O.3       1 <0>        -0.6303
     35 S1          1.1775   -3.5081   -2.5659 S.o2      1 <0>         1.5193
     36 H1          3.4328   -7.7153   -3.4316 H         1 <0>         0.1426
     37 H2          3.3680   -7.4891   -5.8914 H         1 <0>         0.1398
     38 H3          2.4534   -5.9358   -1.9953 H         1 <0>         0.1599
     39 H4          3.3132   -5.1073   -7.6968 H         1 <0>         0.0574
     40 H5          2.1395   -6.4300   -7.8186 H         1 <0>         0.0629
     41 H6          3.5311   -4.0088    2.1410 H         1 <0>         0.0614
     42 H7          5.2694   -4.2509    2.1463 H         1 <0>         0.0593
     43 H8          5.0641   -0.5305    2.5137 H         1 <0>         0.0841
     44 H9          3.8399   -0.5392    3.7741 H         1 <0>         0.0679
     45 H10         5.5312   -2.2723    0.6079 H         1 <0>         0.0826
     46 H11         4.4795   -3.5150   -0.0747 H         1 <0>         0.0383
     47 H12         2.3133   -2.6740   -7.2264 H         1 <0>         0.0556
     48 H13         0.5637   -2.4650   -7.3281 H         1 <0>         0.0415
     49 H14         2.9188    0.0160    1.5141 H         1 <0>         0.0851
     50 H15         0.2527   -4.9144   -7.6261 H         1 <0>         0.0639
     51 H16         3.9047   -2.8651    4.0450 H         1 <0>         0.0584
     52 H17         0.4364   -3.7110   -9.6904 H         1 <0>         0.0401
     53 H18         2.1981   -3.5608   -9.5417 H         1 <0>         0.0440
     54 H19         1.4672   -5.1439   -9.8699 H         1 <0>         0.0459
     55 H20         6.0310   -3.1862    4.7353 H         1 <0>         0.0456
     56 H21         6.7293   -2.8350    3.1425 H         1 <0>         0.0366
     57 H22         6.2606   -1.5045    4.2187 H         1 <0>         0.0474
     58 H23         4.3389   -2.2150   -4.5365 H         1 <0>         0.0800
     59 H24         5.9381   -1.5325   -4.2238 H         1 <0>         0.0681
     60 H25         4.1906   -0.3664   -2.8945 H         1 <0>         0.0740
     61 H26         5.3633   -1.1575   -1.8491 H         1 <0>         0.0631
     62 H27         4.8565   -4.1061   -2.9610 H         1 <0>         0.0970
     63 H28         6.4445   -3.3867   -2.6481 H         1 <0>         0.0725
     64 H29         3.7703   -3.1244   -1.5692 H         1 <0>         0.0839
     65 H30         0.9344   -2.6826   -4.9846 H         1 <0>         0.4531
     66 H31         7.2891   -5.6840   -6.4776 H         1 <0>         0.4798
     67 H32         7.7569   -7.0132   -5.4639 H         1 <0>         0.4881
     68 H33         6.5067   -5.6181   -2.3575 H         1 <0>         0.4801
     69 H34         7.3085   -6.9804   -3.0849 H         1 <0>         0.4806
     70 H35         6.1629   -3.7578   -5.4666 H         1 <0>         0.4689
     71 H36         1.9407   -1.3323   -3.1385 H         1 <0>         0.4505
     72 H37         0.5099   -2.9556    2.0129 H         1 <0>         0.4443
@<TRIPOS>BOND
     1    1    2 ar
     2    1    3 ar
     3    2    4 ar
     4    3    6 ar
     5    4    5 ar
     6    4   10 1
     7    5    6 ar
     8    5   24 1
     9    6   35 1
    10    7   15 1
    11    7   30 2
    12    7   34 1
    13    8   23 1
    14    8   25 am
    15    8   31 2
    16    9   26 1
    17    9   27 1
    18    9   28 1
    19   10   16 1
    20   11   13 1
    21   11   17 1
    22   12   15 1
    23   12   17 1
    24   13   25 1
    25   14   16 1
    26   14   24 1
    27   15   25 1
    28   16   18 1
    29   17   19 1
    30   20   21 1
    31   20   22 1
    32   21   23 1
    33   22   28 1
    34   23   29 1
    35   29   35 1
    36   32   35 2
    37   33   35 2
    38    1   36 1
    39    2   37 1
    40    3   38 1
    41   10   39 1
    42   10   40 1
    43   11   41 1
    44   11   42 1
    45   12   43 1
    46   12   44 1
    47   13   45 1
    48   13   46 1
    49   14   47 1
    50   14   48 1
    51   15   49 1
    52   16   50 1
    53   17   51 1
    54   18   52 1
    55   18   53 1
    56   18   54 1
    57   19   55 1
    58   19   56 1
    59   19   57 1
    60   20   58 1
    61   20   59 1
    62   21   60 1
    63   21   61 1
    64   22   62 1
    65   22   63 1
    66   23   64 1
    67   24   65 1
    68   26   66 1
    69   26   67 1
    70   27   68 1
    71   27   69 1
    72   28   70 1
    73   29   71 1
    74   34   72 1
@<TRIPOS>MOLECULE
1dwc_ligand_31
   72    74     0     0     0
SMALL
USER_CHARGES

mmff94s_NoEstat = 74.88
@<TRIPOS>ATOM
      1 C1          2.9804   -6.8364   -3.8826 C.ar      1 <0>        -0.1945
      2 C2          2.9418   -6.7056   -5.2692 C.ar      1 <0>        -0.0294
      3 C3          2.4346   -5.8419   -3.0764 C.ar      1 <0>        -0.0143
      4 C4          2.3519   -5.5783   -5.8586 C.ar      1 <0>        -0.1552
      5 C5          1.8230   -4.5534   -5.0490 C.ar      1 <0>         0.3076
      6 C6          1.8576   -4.7107   -3.6559 C.ar      1 <0>        -0.4908
      7 C7          1.8102   -1.5505    2.3702 C.2       1 <0>         0.5994
      8 C8          2.9466   -1.3973   -0.6457 C.2       1 <0>         0.6462
      9 C9          7.8126   -1.5752   -6.3980 C.cat     1 <0>         0.6305
     10 C10         2.3255   -5.4497   -7.3628 C.3       1 <0>        -0.0319
     11 C11         4.4920   -3.4807    2.0801 C.3       1 <0>        -0.0918
     12 C12         4.1798   -1.0721    2.8769 C.3       1 <0>        -0.0841
     13 C13         4.5658   -2.7774    0.7291 C.3       1 <0>         0.0870
     14 C14         1.3521   -3.1637   -7.0268 C.3       1 <0>         0.2023
     15 C15         3.1125   -1.0286    1.7861 C.3       1 <0>         0.0778
     16 C16         1.2367   -4.4677   -7.8231 C.3       1 <0>        -0.0746
     17 C17         4.5869   -2.5050    3.2643 C.3       1 <0>        -0.0681
     18 C18         1.3410   -4.2047   -9.3229 C.3       1 <0>        -0.0944
     19 C19         5.9882   -2.5079    3.8779 C.3       1 <0>        -0.0918
     20 C20         5.1203   -2.1076   -3.7746 C.3       1 <0>        -0.1192
     21 C21         4.5564   -1.3488   -2.5679 C.3       1 <0>        -0.0916
     22 C22         6.2766   -1.3646   -4.4322 C.3       1 <0>         0.1883
     23 C23         3.4544   -2.1251   -1.8653 C.3       1 <0>         0.1952
     24 N1          1.2318   -3.4255   -5.6050 N.pl3     1 <0>        -0.7670
     25 N2          3.5192   -1.7560    0.5781 N.am      1 <0>        -0.4509
     26 N3          8.2843   -2.2817   -7.4995 N.pl3     1 <0>        -0.8477
     27 N4          8.3735   -0.3395   -6.0942 N.pl3     1 <0>        -0.8633
     28 N5          6.7875   -2.0816   -5.5916 N.pl3     1 <0>        -0.7419
     29 N6          2.2741   -2.2179   -2.7432 N.pl3     1 <0>        -0.8860
     30 O1          1.2492   -1.0925    3.3546 O.2       1 <0>        -0.5199
     31 O2          2.0685   -0.5400   -0.7710 O.2       1 <0>        -0.6131
     32 O3         -0.1165   -3.1121   -3.0880 O.2       1 <0>        -0.6576
     33 O4          1.2896   -4.0436   -1.2226 O.2       1 <0>        -0.6482
     34 O5          1.3501   -2.6026    1.6500 O.3       1 <0>        -0.6303
     35 S1          1.1775   -3.5081   -2.5659 S.o2      1 <0>         1.5193
     36 H1          3.4328   -7.7153   -3.4316 H         1 <0>         0.1426
     37 H2          3.3680   -7.4891   -5.8914 H         1 <0>         0.1398
     38 H3          2.4534   -5.9358   -1.9953 H         1 <0>         0.1599
     39 H4          3.3132   -5.1073   -7.6968 H         1 <0>         0.0574
     40 H5          2.1395   -6.4300   -7.8186 H         1 <0>         0.0629
     41 H6          3.5311   -4.0088    2.1410 H         1 <0>         0.0614
     42 H7          5.2694   -4.2509    2.1463 H         1 <0>         0.0593
     43 H8          5.0641   -0.5305    2.5137 H         1 <0>         0.0841
     44 H9          3.8399   -0.5392    3.7741 H         1 <0>         0.0679
     45 H10         5.5312   -2.2723    0.6079 H         1 <0>         0.0826
     46 H11         4.4795   -3.5150   -0.0747 H         1 <0>         0.0383
     47 H12         2.3133   -2.6740   -7.2264 H         1 <0>         0.0556
     48 H13         0.5637   -2.4650   -7.3281 H         1 <0>         0.0415
     49 H14         2.9188    0.0160    1.5141 H         1 <0>         0.0851
     50 H15         0.2527   -4.9144   -7.6261 H         1 <0>         0.0639
     51 H16         3.9047   -2.8651    4.0450 H         1 <0>         0.0584
     52 H17         0.4364   -3.7110   -9.6904 H         1 <0>         0.0401
     53 H18         2.1981   -3.5608   -9.5417 H         1 <0>         0.0440
     54 H19         1.4672   -5.1439   -9.8699 H         1 <0>         0.0459
     55 H20         6.0310   -3.1862    4.7353 H         1 <0>         0.0456
     56 H21         6.7293   -2.8350    3.1425 H         1 <0>         0.0366
     57 H22         6.2606   -1.5045    4.2187 H         1 <0>         0.0474
     58 H23         5.4592   -3.1007   -3.4560 H         1 <0>         0.0800
     59 H24         4.3307   -2.2553   -4.5204 H         1 <0>         0.0681
     60 H25         4.1906   -0.3664   -2.8945 H         1 <0>         0.0740
     61 H26         5.3633   -1.1575   -1.8491 H         1 <0>         0.0631
     62 H27         7.1023   -1.2161   -3.7290 H         1 <0>         0.0970
     63 H28         5.9419   -0.3800   -4.7739 H         1 <0>         0.0725
     64 H29         3.7703   -3.1244   -1.5692 H         1 <0>         0.0839
     65 H30         0.9344   -2.6826   -4.9846 H         1 <0>         0.4531
     66 H31         7.9061   -3.1889   -7.7584 H         1 <0>         0.4798
     67 H32         9.0306   -1.9064   -8.0803 H         1 <0>         0.4881
     68 H33         8.0525    0.2034   -5.2962 H         1 <0>         0.4801
     69 H34         9.1192    0.0544   -6.6629 H         1 <0>         0.4806
     70 H35         6.3957   -2.9912   -5.8400 H         1 <0>         0.4689
     71 H36         1.9407   -1.3323   -3.1385 H         1 <0>         0.4505
     72 H37         0.5099   -2.9556    2.0129 H         1 <0>         0.4443
@<TRIPOS>BOND
     1    1    2 ar
     2    1    3 ar
     3    2    4 ar
     4    3    6 ar
     5    4    5 ar
     6    4   10 1
     7    5    6 ar
     8    5   24 1
     9    6   35 1
    10    7   15 1
    11    7   30 2
    12    7   34 1
    13    8   23 1
    14    8   25 am
    15    8   31 2
    16    9   26 1
    17    9   27 1
    18    9   28 1
    19   10   16 1
    20   11   13 1
    21   11   17 1
    22   12   15 1
    23   12   17 1
    24   13   25 1
    25   14   16 1
    26   14   24 1
    27   15   25 1
    28   16   18 1
    29   17   19 1
    30   20   21 1
    31   20   22 1
    32   21   23 1
    33   22   28 1
    34   23   29 1
    35   29   35 1
    36   32   35 2
    37   33   35 2
    38    1   36 1
    39    2   37 1
    40    3   38 1
    41   10   39 1
    42   10   40 1
    43   11   41 1
    44   11   42 1
    45   12   43 1
    46   12   44 1
    47   13   45 1
    48   13   46 1
    49   14   47 1
    50   14   48 1
    51   15   49 1
    52   16   50 1
    53   17   51 1
    54   18   52 1
    55   18   53 1
    56   18   54 1
    57   19   55 1
    58   19   56 1
    59   19   57 1
    60   20   58 1
    61   20   59 1
    62   21   60 1
    63   21   61 1
    64   22   62 1
    65   22   63 1
    66   23   64 1
    67   24   65 1
    68   26   66 1
    69   26   67 1
    70   27   68 1
    71   27   69 1
    72   28   70 1
    73   29   71 1
    74   34   72 1
@<TRIPOS>MOLECULE
1dwc_ligand_32
   72    74     0     0     0
SMALL
USER_CHARGES

mmff94s_NoEstat = 74.89
@<TRIPOS>ATOM
      1 C1         -3.3475   -6.3503    1.8791 C.ar      1 <0>        -0.1945
      2 C2         -3.9958   -5.9344    0.7180 C.ar      1 <0>        -0.0294
      3 C3         -2.9512   -5.4113    2.8268 C.ar      1 <0>        -0.0143
      4 C4         -4.2554   -4.5738    0.4999 C.ar      1 <0>        -0.1552
      5 C5         -3.8316   -3.6142    1.4408 C.ar      1 <0>         0.3076
      6 C6         -3.1944   -4.0540    2.6102 C.ar      1 <0>        -0.4908
      7 C7          3.5686   -3.4379    3.7704 C.2       1 <0>         0.5994
      8 C8          0.8654   -1.4427    3.2413 C.2       1 <0>         0.6462
      9 C9         -0.6326   -5.9229   -1.4626 C.cat     1 <0>         0.6305
     10 C10        -4.9524   -4.1403   -0.7675 C.3       1 <0>        -0.0319
     11 C11         3.4440   -0.0674    5.4719 C.3       1 <0>        -0.0918
     12 C12         3.1682   -2.4952    6.0163 C.3       1 <0>        -0.0841
     13 C13         2.9000   -0.3276    4.0730 C.3       1 <0>         0.0870
     14 C14        -4.5641   -1.7769   -0.0261 C.3       1 <0>         0.2023
     15 C15         2.5392   -2.7371    4.6417 C.3       1 <0>         0.0778
     16 C16        -5.5921   -2.7519   -0.6095 C.3       1 <0>        -0.0746
     17 C17         4.1435   -1.3104    6.0281 C.3       1 <0>        -0.0681
     18 C18        -6.1301   -2.2464   -1.9453 C.3       1 <0>        -0.0944
     19 C19         4.6673   -1.0527    7.4396 C.3       1 <0>        -0.0918
     20 C20         0.0249   -2.8727    0.7002 C.3       1 <0>        -0.1192
     21 C21         0.3004   -3.5693    2.0376 C.3       1 <0>        -0.0916
     22 C22         0.2602   -3.7963   -0.4886 C.3       1 <0>         0.1883
     23 C23        -0.0078   -2.6730    3.2260 C.3       1 <0>         0.1952
     24 N1         -4.0757   -2.2595    1.2518 N.pl3     1 <0>        -0.7670
     25 N2          2.0252   -1.5038    4.0223 N.am      1 <0>        -0.4509
     26 N3         -1.4804   -7.0239   -1.4014 N.pl3     1 <0>        -0.8477
     27 N4          0.2178   -5.7819   -2.5539 N.pl3     1 <0>        -0.8633
     28 N5         -0.6182   -4.9567   -0.4508 N.pl3     1 <0>        -0.7419
     29 N6         -1.3760   -2.1385    3.1042 N.pl3     1 <0>        -0.8860
     30 O1          4.3335   -2.8779    2.9993 O.2       1 <0>        -0.5199
     31 O2          0.5240   -0.4555    2.5844 O.2       1 <0>        -0.6131
     32 O3         -3.7495   -1.9880    4.0928 O.2       1 <0>        -0.6576
     33 O4         -2.1627   -3.7355    4.9602 O.2       1 <0>        -0.6482
     34 O5          3.5241   -4.7791    3.9616 O.3       1 <0>        -0.6303
     35 S1         -2.6746   -2.9347    3.8647 S.o2      1 <0>         1.5193
     36 H1         -3.1550   -7.4065    2.0458 H         1 <0>         0.1426
     37 H2         -4.3045   -6.6753   -0.0157 H         1 <0>         0.1398
     38 H3         -2.4509   -5.7242    3.7377 H         1 <0>         0.1599
     39 H4         -4.2148   -4.1296   -1.5800 H         1 <0>         0.0574
     40 H5         -5.7315   -4.8656   -1.0323 H         1 <0>         0.0629
     41 H6          4.1435    0.7764    5.4419 H         1 <0>         0.0614
     42 H7          2.6191    0.2214    6.1357 H         1 <0>         0.0593
     43 H8          2.3618   -2.2928    6.7345 H         1 <0>         0.0841
     44 H9          3.6813   -3.3988    6.3690 H         1 <0>         0.0679
     45 H10         2.3679    0.5618    3.7197 H         1 <0>         0.0826
     46 H11         3.7232   -0.5081    3.3711 H         1 <0>         0.0383
     47 H12        -3.7191   -1.6505   -0.7142 H         1 <0>         0.0556
     48 H13        -5.0170   -0.7893    0.1158 H         1 <0>         0.0415
     49 H14         1.7211   -3.4548    4.7590 H         1 <0>         0.0851
     50 H15        -6.4375   -2.8304    0.0874 H         1 <0>         0.0639
     51 H16         5.0063   -1.5479    5.3937 H         1 <0>         0.0584
     52 H17        -6.7909   -1.3877   -1.7933 H         1 <0>         0.0401
     53 H18        -5.3086   -1.9377   -2.5987 H         1 <0>         0.0440
     54 H19        -6.6976   -3.0320   -2.4531 H         1 <0>         0.0459
     55 H20         4.2777   -1.8006    8.1367 H         1 <0>         0.0456
     56 H21         5.7602   -1.1000    7.4588 H         1 <0>         0.0366
     57 H22         4.3590   -0.0627    7.7891 H         1 <0>         0.0474
     58 H23        -1.0105   -2.5120    0.6824 H         1 <0>         0.0800
     59 H24         0.6776   -1.9980    0.5976 H         1 <0>         0.0681
     60 H25         1.3460   -3.9033    2.0652 H         1 <0>         0.0740
     61 H26        -0.3175   -4.4733    2.1109 H         1 <0>         0.0631
     62 H27         1.2957   -4.1503   -0.5157 H         1 <0>         0.0970
     63 H28         0.0608   -3.2615   -1.4226 H         1 <0>         0.0725
     64 H29         0.1003   -3.1895    4.1787 H         1 <0>         0.0839
     65 H30        -3.6865   -1.6028    1.9171 H         1 <0>         0.4531
     66 H31        -2.1173   -7.1693   -0.6226 H         1 <0>         0.4798
     67 H32        -1.4841   -7.7223   -2.1412 H         1 <0>         0.4881
     68 H33         0.8505   -4.9892   -2.6303 H         1 <0>         0.4801
     69 H34         0.2286   -6.4677   -3.3050 H         1 <0>         0.4806
     70 H35        -1.2539   -5.0876    0.3375 H         1 <0>         0.4689
     71 H36        -1.4476   -1.1318    2.9219 H         1 <0>         0.4505
     72 H37         4.1809   -5.2504    3.4059 H         1 <0>         0.4443
@<TRIPOS>BOND
     1    1    2 ar
     2    1    3 ar
     3    2    4 ar
     4    3    6 ar
     5    4    5 ar
     6    4   10 1
     7    5    6 ar
     8    5   24 1
     9    6   35 1
    10    7   15 1
    11    7   30 2
    12    7   34 1
    13    8   23 1
    14    8   25 am
    15    8   31 2
    16    9   26 1
    17    9   27 1
    18    9   28 1
    19   10   16 1
    20   11   13 1
    21   11   17 1
    22   12   15 1
    23   12   17 1
    24   13   25 1
    25   14   16 1
    26   14   24 1
    27   15   25 1
    28   16   18 1
    29   17   19 1
    30   20   21 1
    31   20   22 1
    32   21   23 1
    33   22   28 1
    34   23   29 1
    35   29   35 1
    36   32   35 2
    37   33   35 2
    38    1   36 1
    39    2   37 1
    40    3   38 1
    41   10   39 1
    42   10   40 1
    43   11   41 1
    44   11   42 1
    45   12   43 1
    46   12   44 1
    47   13   45 1
    48   13   46 1
    49   14   47 1
    50   14   48 1
    51   15   49 1
    52   16   50 1
    53   17   51 1
    54   18   52 1
    55   18   53 1
    56   18   54 1
    57   19   55 1
    58   19   56 1
    59   19   57 1
    60   20   58 1
    61   20   59 1
    62   21   60 1
    63   21   61 1
    64   22   62 1
    65   22   63 1
    66   23   64 1
    67   24   65 1
    68   26   66 1
    69   26   67 1
    70   27   68 1
    71   27   69 1
    72   28   70 1
    73   29   71 1
    74   34   72 1
@<TRIPOS>MOLECULE
1dwc_ligand_33
   72    74     0     0     0
SMALL
USER_CHARGES

mmff94s_NoEstat = 74.94
@<TRIPOS>ATOM
      1 C1          2.9804   -6.8364   -3.8826 C.ar      1 <0>        -0.1945
      2 C2          2.9418   -6.7056   -5.2692 C.ar      1 <0>        -0.0294
      3 C3          2.4346   -5.8419   -3.0764 C.ar      1 <0>        -0.0143
      4 C4          2.3519   -5.5783   -5.8586 C.ar      1 <0>        -0.1552
      5 C5          1.8230   -4.5534   -5.0490 C.ar      1 <0>         0.3076
      6 C6          1.8576   -4.7107   -3.6559 C.ar      1 <0>        -0.4908
      7 C7          1.8102   -1.5505    2.3702 C.2       1 <0>         0.5994
      8 C8          2.9466   -1.3973   -0.6457 C.2       1 <0>         0.6462
      9 C9          8.5933   -0.5790   -3.8993 C.cat     1 <0>         0.6305
     10 C10         2.3255   -5.4497   -7.3628 C.3       1 <0>        -0.0319
     11 C11         4.4920   -3.4807    2.0801 C.3       1 <0>        -0.0918
     12 C12         4.1798   -1.0721    2.8769 C.3       1 <0>        -0.0841
     13 C13         4.5658   -2.7774    0.7291 C.3       1 <0>         0.0870
     14 C14         1.3521   -3.1637   -7.0268 C.3       1 <0>         0.2023
     15 C15         3.1125   -1.0286    1.7861 C.3       1 <0>         0.0778
     16 C16         1.2367   -4.4677   -7.8231 C.3       1 <0>        -0.0746
     17 C17         4.5869   -2.5050    3.2643 C.3       1 <0>        -0.0681
     18 C18         1.3410   -4.2047   -9.3229 C.3       1 <0>        -0.0944
     19 C19         5.9882   -2.5079    3.8779 C.3       1 <0>        -0.0918
     20 C20         5.1203   -2.1076   -3.7746 C.3       1 <0>        -0.1192
     21 C21         4.5564   -1.3488   -2.5679 C.3       1 <0>        -0.0916
     22 C22         6.2766   -1.3646   -4.4322 C.3       1 <0>         0.1883
     23 C23         3.4544   -2.1251   -1.8653 C.3       1 <0>         0.1952
     24 N1          1.2318   -3.4255   -5.6050 N.pl3     1 <0>        -0.7670
     25 N2          3.5192   -1.7560    0.5781 N.am      1 <0>        -0.4509
     26 N3          9.6431   -0.4158   -3.0015 N.pl3     1 <0>        -0.8477
     27 N4          8.7440   -0.1312   -5.2072 N.pl3     1 <0>        -0.8633
     28 N5          7.3917   -1.1832   -3.5140 N.pl3     1 <0>        -0.7419
     29 N6          2.2741   -2.2179   -2.7432 N.pl3     1 <0>        -0.8860
     30 O1          1.2492   -1.0925    3.3546 O.2       1 <0>        -0.5199
     31 O2          2.0685   -0.5400   -0.7710 O.2       1 <0>        -0.6131
     32 O3         -0.1165   -3.1121   -3.0880 O.2       1 <0>        -0.6576
     33 O4          1.2896   -4.0436   -1.2226 O.2       1 <0>        -0.6482
     34 O5          1.3501   -2.6026    1.6500 O.3       1 <0>        -0.6303
     35 S1          1.1775   -3.5081   -2.5659 S.o2      1 <0>         1.5193
     36 H1          3.4328   -7.7153   -3.4316 H         1 <0>         0.1426
     37 H2          3.3680   -7.4891   -5.8914 H         1 <0>         0.1398
     38 H3          2.4534   -5.9358   -1.9953 H         1 <0>         0.1599
     39 H4          3.3132   -5.1073   -7.6968 H         1 <0>         0.0574
     40 H5          2.1395   -6.4300   -7.8186 H         1 <0>         0.0629
     41 H6          3.5311   -4.0088    2.1410 H         1 <0>         0.0614
     42 H7          5.2694   -4.2509    2.1463 H         1 <0>         0.0593
     43 H8          5.0641   -0.5305    2.5137 H         1 <0>         0.0841
     44 H9          3.8399   -0.5392    3.7741 H         1 <0>         0.0679
     45 H10         5.5312   -2.2723    0.6079 H         1 <0>         0.0826
     46 H11         4.4795   -3.5150   -0.0747 H         1 <0>         0.0383
     47 H12         2.3133   -2.6740   -7.2264 H         1 <0>         0.0556
     48 H13         0.5637   -2.4650   -7.3281 H         1 <0>         0.0415
     49 H14         2.9188    0.0160    1.5141 H         1 <0>         0.0851
     50 H15         0.2527   -4.9144   -7.6261 H         1 <0>         0.0639
     51 H16         3.9047   -2.8651    4.0450 H         1 <0>         0.0584
     52 H17         0.4364   -3.7110   -9.6904 H         1 <0>         0.0401
     53 H18         2.1981   -3.5608   -9.5417 H         1 <0>         0.0440
     54 H19         1.4672   -5.1439   -9.8699 H         1 <0>         0.0459
     55 H20         6.0310   -3.1862    4.7353 H         1 <0>         0.0456
     56 H21         6.7293   -2.8350    3.1425 H         1 <0>         0.0366
     57 H22         6.2606   -1.5045    4.2187 H         1 <0>         0.0474
     58 H23         5.4592   -3.1007   -3.4560 H         1 <0>         0.0800
     59 H24         4.3307   -2.2553   -4.5204 H         1 <0>         0.0681
     60 H25         4.1906   -0.3664   -2.8945 H         1 <0>         0.0740
     61 H26         5.3633   -1.1575   -1.8491 H         1 <0>         0.0631
     62 H27         5.9616   -0.3787   -4.7887 H         1 <0>         0.0970
     63 H28         6.6457   -1.9332   -5.2916 H         1 <0>         0.0725
     64 H29         3.7703   -3.1244   -1.5692 H         1 <0>         0.0839
     65 H30         0.9344   -2.6826   -4.9846 H         1 <0>         0.4531
     66 H31         9.5774   -0.7257   -2.0356 H         1 <0>         0.4798
     67 H32        10.5134    0.0253   -3.2898 H         1 <0>         0.4881
     68 H33         7.9967   -0.2346   -5.8893 H         1 <0>         0.4801
     69 H34         9.6064    0.3108   -5.5164 H         1 <0>         0.4806
     70 H35         7.3110   -1.5018   -2.5472 H         1 <0>         0.4689
     71 H36         1.9407   -1.3323   -3.1385 H         1 <0>         0.4505
     72 H37         0.5099   -2.9556    2.0129 H         1 <0>         0.4443
@<TRIPOS>BOND
     1    1    2 ar
     2    1    3 ar
     3    2    4 ar
     4    3    6 ar
     5    4    5 ar
     6    4   10 1
     7    5    6 ar
     8    5   24 1
     9    6   35 1
    10    7   15 1
    11    7   30 2
    12    7   34 1
    13    8   23 1
    14    8   25 am
    15    8   31 2
    16    9   26 1
    17    9   27 1
    18    9   28 1
    19   10   16 1
    20   11   13 1
    21   11   17 1
    22   12   15 1
    23   12   17 1
    24   13   25 1
    25   14   16 1
    26   14   24 1
    27   15   25 1
    28   16   18 1
    29   17   19 1
    30   20   21 1
    31   20   22 1
    32   21   23 1
    33   22   28 1
    34   23   29 1
    35   29   35 1
    36   32   35 2
    37   33   35 2
    38    1   36 1
    39    2   37 1
    40    3   38 1
    41   10   39 1
    42   10   40 1
    43   11   41 1
    44   11   42 1
    45   12   43 1
    46   12   44 1
    47   13   45 1
    48   13   46 1
    49   14   47 1
    50   14   48 1
    51   15   49 1
    52   16   50 1
    53   17   51 1
    54   18   52 1
    55   18   53 1
    56   18   54 1
    57   19   55 1
    58   19   56 1
    59   19   57 1
    60   20   58 1
    61   20   59 1
    62   21   60 1
    63   21   61 1
    64   22   62 1
    65   22   63 1
    66   23   64 1
    67   24   65 1
    68   26   66 1
    69   26   67 1
    70   27   68 1
    71   27   69 1
    72   28   70 1
    73   29   71 1
    74   34   72 1
@<TRIPOS>MOLECULE
1dwc_ligand_34
   72    74     0     0     0
SMALL
USER_CHARGES

mmff94s_NoEstat = 74.96
@<TRIPOS>ATOM
      1 C1          2.9804   -6.8364   -3.8826 C.ar      1 <0>        -0.1945
      2 C2          2.9418   -6.7056   -5.2692 C.ar      1 <0>        -0.0294
      3 C3          2.4346   -5.8419   -3.0764 C.ar      1 <0>        -0.0143
      4 C4          2.3519   -5.5783   -5.8586 C.ar      1 <0>        -0.1552
      5 C5          1.8230   -4.5534   -5.0490 C.ar      1 <0>         0.3076
      6 C6          1.8576   -4.7107   -3.6559 C.ar      1 <0>        -0.4908
      7 C7          1.8102   -1.5505    2.3702 C.2       1 <0>         0.5994
      8 C8          2.9466   -1.3973   -0.6457 C.2       1 <0>         0.6462
      9 C9          7.3062   -4.5323   -1.8364 C.cat     1 <0>         0.6305
     10 C10         2.3255   -5.4497   -7.3628 C.3       1 <0>        -0.0319
     11 C11         4.4920   -3.4807    2.0801 C.3       1 <0>        -0.0918
     12 C12         4.1798   -1.0721    2.8769 C.3       1 <0>        -0.0841
     13 C13         4.5658   -2.7774    0.7291 C.3       1 <0>         0.0870
     14 C14         1.3521   -3.1637   -7.0268 C.3       1 <0>         0.2023
     15 C15         3.1125   -1.0286    1.7861 C.3       1 <0>         0.0778
     16 C16         1.2367   -4.4677   -7.8231 C.3       1 <0>        -0.0746
     17 C17         4.5869   -2.5050    3.2643 C.3       1 <0>        -0.0681
     18 C18         1.3410   -4.2047   -9.3229 C.3       1 <0>        -0.0944
     19 C19         5.9882   -2.5079    3.8779 C.3       1 <0>        -0.0918
     20 C20         5.1203   -2.1076   -3.7746 C.3       1 <0>        -0.1192
     21 C21         4.5564   -1.3488   -2.5679 C.3       1 <0>        -0.0916
     22 C22         5.6479   -3.4850   -3.3924 C.3       1 <0>         0.1883
     23 C23         3.4544   -2.1251   -1.8653 C.3       1 <0>         0.1952
     24 N1          1.2318   -3.4255   -5.6050 N.pl3     1 <0>        -0.7670
     25 N2          3.5192   -1.7560    0.5781 N.am      1 <0>        -0.4509
     26 N3          8.3122   -4.4229   -0.8820 N.pl3     1 <0>        -0.8477
     27 N4          6.8952   -5.7960   -2.2464 N.pl3     1 <0>        -0.8633
     28 N5          6.7009   -3.3994   -2.3908 N.pl3     1 <0>        -0.7419
     29 N6          2.2741   -2.2179   -2.7432 N.pl3     1 <0>        -0.8860
     30 O1          1.2492   -1.0925    3.3546 O.2       1 <0>        -0.5199
     31 O2          2.0685   -0.5400   -0.7710 O.2       1 <0>        -0.6131
     32 O3         -0.1165   -3.1121   -3.0880 O.2       1 <0>        -0.6576
     33 O4          1.2896   -4.0436   -1.2226 O.2       1 <0>        -0.6482
     34 O5          1.3501   -2.6026    1.6500 O.3       1 <0>        -0.6303
     35 S1          1.1775   -3.5081   -2.5659 S.o2      1 <0>         1.5193
     36 H1          3.4328   -7.7153   -3.4316 H         1 <0>         0.1426
     37 H2          3.3680   -7.4891   -5.8914 H         1 <0>         0.1398
     38 H3          2.4534   -5.9358   -1.9953 H         1 <0>         0.1599
     39 H4          3.3132   -5.1073   -7.6968 H         1 <0>         0.0574
     40 H5          2.1395   -6.4300   -7.8186 H         1 <0>         0.0629
     41 H6          3.5311   -4.0088    2.1410 H         1 <0>         0.0614
     42 H7          5.2694   -4.2509    2.1463 H         1 <0>         0.0593
     43 H8          5.0641   -0.5305    2.5137 H         1 <0>         0.0841
     44 H9          3.8399   -0.5392    3.7741 H         1 <0>         0.0679
     45 H10         5.5312   -2.2723    0.6079 H         1 <0>         0.0826
     46 H11         4.4795   -3.5150   -0.0747 H         1 <0>         0.0383
     47 H12         2.3133   -2.6740   -7.2264 H         1 <0>         0.0556
     48 H13         0.5637   -2.4650   -7.3281 H         1 <0>         0.0415
     49 H14         2.9188    0.0160    1.5141 H         1 <0>         0.0851
     50 H15         0.2527   -4.9144   -7.6261 H         1 <0>         0.0639
     51 H16         3.9047   -2.8651    4.0450 H         1 <0>         0.0584
     52 H17         0.4364   -3.7110   -9.6904 H         1 <0>         0.0401
     53 H18         2.1981   -3.5608   -9.5417 H         1 <0>         0.0440
     54 H19         1.4672   -5.1439   -9.8699 H         1 <0>         0.0459
     55 H20         6.0310   -3.1862    4.7353 H         1 <0>         0.0456
     56 H21         6.7293   -2.8350    3.1425 H         1 <0>         0.0366
     57 H22         6.2606   -1.5045    4.2187 H         1 <0>         0.0474
     58 H23         4.3389   -2.2150   -4.5365 H         1 <0>         0.0800
     59 H24         5.9381   -1.5325   -4.2238 H         1 <0>         0.0681
     60 H25         4.1906   -0.3664   -2.8945 H         1 <0>         0.0740
     61 H26         5.3633   -1.1575   -1.8491 H         1 <0>         0.0631
     62 H27         6.0463   -4.0122   -4.2651 H         1 <0>         0.0970
     63 H28         4.8397   -4.0910   -2.9708 H         1 <0>         0.0725
     64 H29         3.7703   -3.1244   -1.5692 H         1 <0>         0.0839
     65 H30         0.9344   -2.6826   -4.9846 H         1 <0>         0.4531
     66 H31         8.6460   -3.5206   -0.5539 H         1 <0>         0.4798
     67 H32         8.7476   -5.2520   -0.4844 H         1 <0>         0.4881
     68 H33         6.1625   -5.9122   -2.9422 H         1 <0>         0.4801
     69 H34         7.3161   -6.6377   -1.8601 H         1 <0>         0.4806
     70 H35         7.0240   -2.4854   -2.0698 H         1 <0>         0.4689
     71 H36         1.9407   -1.3323   -3.1385 H         1 <0>         0.4505
     72 H37         0.5099   -2.9556    2.0129 H         1 <0>         0.4443
@<TRIPOS>BOND
     1    1    2 ar
     2    1    3 ar
     3    2    4 ar
     4    3    6 ar
     5    4    5 ar
     6    4   10 1
     7    5    6 ar
     8    5   24 1
     9    6   35 1
    10    7   15 1
    11    7   30 2
    12    7   34 1
    13    8   23 1
    14    8   25 am
    15    8   31 2
    16    9   26 1
    17    9   27 1
    18    9   28 1
    19   10   16 1
    20   11   13 1
    21   11   17 1
    22   12   15 1
    23   12   17 1
    24   13   25 1
    25   14   16 1
    26   14   24 1
    27   15   25 1
    28   16   18 1
    29   17   19 1
    30   20   21 1
    31   20   22 1
    32   21   23 1
    33   22   28 1
    34   23   29 1
    35   29   35 1
    36   32   35 2
    37   33   35 2
    38    1   36 1
    39    2   37 1
    40    3   38 1
    41   10   39 1
    42   10   40 1
    43   11   41 1
    44   11   42 1
    45   12   43 1
    46   12   44 1
    47   13   45 1
    48   13   46 1
    49   14   47 1
    50   14   48 1
    51   15   49 1
    52   16   50 1
    53   17   51 1
    54   18   52 1
    55   18   53 1
    56   18   54 1
    57   19   55 1
    58   19   56 1
    59   19   57 1
    60   20   58 1
    61   20   59 1
    62   21   60 1
    63   21   61 1
    64   22   62 1
    65   22   63 1
    66   23   64 1
    67   24   65 1
    68   26   66 1
    69   26   67 1
    70   27   68 1
    71   27   69 1
    72   28   70 1
    73   29   71 1
    74   34   72 1
@<TRIPOS>MOLECULE
1dwc_ligand_35
   72    74     0     0     0
SMALL
USER_CHARGES

mmff94s_NoEstat = 74.97
@<TRIPOS>ATOM
      1 C1         -3.2355   -5.0148    6.4799 C.ar      1 <0>        -0.1945
      2 C2         -4.2884   -5.5400    5.7336 C.ar      1 <0>        -0.0294
      3 C3         -2.6234   -3.8310    6.0789 C.ar      1 <0>        -0.0143
      4 C4         -4.7385   -4.8800    4.5812 C.ar      1 <0>        -0.1552
      5 C5         -4.1052   -3.6965    4.1523 C.ar      1 <0>         0.3076
      6 C6         -3.0575   -3.1757    4.9254 C.ar      1 <0>        -0.4908
      7 C7          3.7233   -2.4449    4.7893 C.2       1 <0>         0.5994
      8 C8          0.8654   -1.4427    3.2413 C.2       1 <0>         0.6462
      9 C9         -0.0382   -5.7761   -1.6019 C.cat     1 <0>         0.6305
     10 C10        -5.8759   -5.4673    3.7804 C.3       1 <0>        -0.0319
     11 C11         1.7658    0.4222    6.2790 C.3       1 <0>        -0.0918
     12 C12         2.2228   -2.0030    6.6989 C.3       1 <0>        -0.0841
     13 C13         1.9003    0.1799    4.7810 C.3       1 <0>         0.0870
     14 C14        -5.4818   -3.6385    2.1112 C.3       1 <0>         0.2023
     15 C15         2.2690   -2.2605    5.1905 C.3       1 <0>         0.0778
     16 C16        -6.5499   -4.4038    2.8993 C.3       1 <0>        -0.0746
     17 C17         2.6202   -0.5689    7.0736 C.3       1 <0>        -0.0681
     18 C18        -7.5704   -5.0425    1.9612 C.3       1 <0>        -0.0944
     19 C19         2.4647   -0.3375    8.5754 C.3       1 <0>        -0.0918
     20 C20        -0.5404   -4.8511    2.0458 C.3       1 <0>        -0.1192
     21 C21         0.3004   -3.5693    2.0376 C.3       1 <0>        -0.0916
     22 C22        -0.1768   -5.7847    0.8978 C.3       1 <0>         0.1883
     23 C23        -0.0078   -2.6730    3.2260 C.3       1 <0>         0.1952
     24 N1         -4.5300   -3.0206    3.0151 N.pl3     1 <0>        -0.7670
     25 N2          1.5999   -1.2067    4.4091 N.am      1 <0>        -0.4509
     26 N3         -0.2239   -5.1414   -2.8257 N.pl3     1 <0>        -0.8477
     27 N4          0.4773   -7.0675   -1.5794 N.pl3     1 <0>        -0.8633
     28 N5         -0.3589   -5.1430   -0.3963 N.pl3     1 <0>        -0.7419
     29 N6         -1.3760   -2.1385    3.1042 N.pl3     1 <0>        -0.8860
     30 O1          4.4523   -1.5599    4.3665 O.2       1 <0>        -0.5199
     31 O2          0.8891   -0.7105    2.2483 O.2       1 <0>        -0.6131
     32 O3         -3.2514   -0.7039    4.1330 O.2       1 <0>        -0.6576
     33 O4         -1.2997   -1.3890    5.5632 O.2       1 <0>        -0.6482
     34 O5          4.1079   -3.7331    4.9617 O.3       1 <0>        -0.6303
     35 S1         -2.2397   -1.6774    4.4970 S.o2      1 <0>         1.5193
     36 H1         -2.8954   -5.5270    7.3757 H         1 <0>         0.1426
     37 H2         -4.7626   -6.4639    6.0561 H         1 <0>         0.1398
     38 H3         -1.8065   -3.4094    6.6557 H         1 <0>         0.1599
     39 H4         -5.4767   -6.2793    3.1592 H         1 <0>         0.0574
     40 H5         -6.6243   -5.8997    4.4558 H         1 <0>         0.0629
     41 H6          2.0669    1.4503    6.5123 H         1 <0>         0.0614
     42 H7          0.7128    0.3207    6.5714 H         1 <0>         0.0593
     43 H8          1.1978   -2.1858    7.0494 H         1 <0>         0.0841
     44 H9          2.8666   -2.7151    7.2306 H         1 <0>         0.0679
     45 H10         1.2456    0.8722    4.2416 H         1 <0>         0.0826
     46 H11         2.9258    0.3867    4.4518 H         1 <0>         0.0383
     47 H12        -4.9499   -4.3126    1.4283 H         1 <0>         0.0556
     48 H13        -5.9488   -2.8592    1.4988 H         1 <0>         0.0415
     49 H14         1.7884   -3.2235    4.9909 H         1 <0>         0.0851
     50 H15        -7.0837   -3.6956    3.5475 H         1 <0>         0.0639
     51 H16         3.6763   -0.4106    6.8224 H         1 <0>         0.0584
     52 H17        -8.2149   -4.2783    1.5167 H         1 <0>         0.0401
     53 H18        -7.0658   -5.5804    1.1530 H         1 <0>         0.0440
     54 H19        -8.2016   -5.7514    2.5054 H         1 <0>         0.0459
     55 H20         2.1532   -1.2591    9.0761 H         1 <0>         0.0456
     56 H21         3.4121   -0.0103    9.0142 H         1 <0>         0.0366
     57 H22         1.7112    0.4316    8.7697 H         1 <0>         0.0474
     58 H23        -0.4002   -5.3741    2.9994 H         1 <0>         0.0800
     59 H24        -1.6035   -4.5964    1.9658 H         1 <0>         0.0681
     60 H25         0.1357   -3.0322    1.0943 H         1 <0>         0.0740
     61 H26         1.3654   -3.8328    2.0643 H         1 <0>         0.0631
     62 H27        -0.7862   -6.6937    0.9190 H         1 <0>         0.0970
     63 H28         0.8744   -6.0800    0.9749 H         1 <0>         0.0725
     64 H29         0.1003   -3.1895    4.1787 H         1 <0>         0.0839
     65 H30        -3.9968   -2.2176    2.7049 H         1 <0>         0.4531
     66 H31        -0.5995   -4.1991   -2.8910 H         1 <0>         0.4798
     67 H32         0.0114   -5.6094   -3.6979 H         1 <0>         0.4881
     68 H33         0.6256   -7.5607   -0.7023 H         1 <0>         0.4801
     69 H34         0.7207   -7.5524   -2.4398 H         1 <0>         0.4806
     70 H35        -0.7354   -4.1951   -0.4451 H         1 <0>         0.4689
     71 H36        -1.6042   -1.6955    2.2078 H         1 <0>         0.4505
     72 H37         5.0446   -3.8732    4.7061 H         1 <0>         0.4443
@<TRIPOS>BOND
     1    1    2 ar
     2    1    3 ar
     3    2    4 ar
     4    3    6 ar
     5    4    5 ar
     6    4   10 1
     7    5    6 ar
     8    5   24 1
     9    6   35 1
    10    7   15 1
    11    7   30 2
    12    7   34 1
    13    8   23 1
    14    8   25 am
    15    8   31 2
    16    9   26 1
    17    9   27 1
    18    9   28 1
    19   10   16 1
    20   11   13 1
    21   11   17 1
    22   12   15 1
    23   12   17 1
    24   13   25 1
    25   14   16 1
    26   14   24 1
    27   15   25 1
    28   16   18 1
    29   17   19 1
    30   20   21 1
    31   20   22 1
    32   21   23 1
    33   22   28 1
    34   23   29 1
    35   29   35 1
    36   32   35 2
    37   33   35 2
    38    1   36 1
    39    2   37 1
    40    3   38 1
    41   10   39 1
    42   10   40 1
    43   11   41 1
    44   11   42 1
    45   12   43 1
    46   12   44 1
    47   13   45 1
    48   13   46 1
    49   14   47 1
    50   14   48 1
    51   15   49 1
    52   16   50 1
    53   17   51 1
    54   18   52 1
    55   18   53 1
    56   18   54 1
    57   19   55 1
    58   19   56 1
    59   19   57 1
    60   20   58 1
    61   20   59 1
    62   21   60 1
    63   21   61 1
    64   22   62 1
    65   22   63 1
    66   23   64 1
    67   24   65 1
    68   26   66 1
    69   26   67 1
    70   27   68 1
    71   27   69 1
    72   28   70 1
    73   29   71 1
    74   34   72 1
@<TRIPOS>MOLECULE
1dwc_ligand_36
   72    74     0     0     0
SMALL
USER_CHARGES

mmff94s_NoEstat = 75.07
@<TRIPOS>ATOM
      1 C1          4.1725   -3.9457    0.5164 C.ar      1 <0>        -0.1945
      2 C2          5.2841   -3.7273    1.3275 C.ar      1 <0>        -0.0294
      3 C3          2.9716   -4.3618    1.0830 C.ar      1 <0>        -0.0143
      4 C4          5.2014   -3.9281    2.7130 C.ar      1 <0>        -0.1552
      5 C5          3.9817   -4.3215    3.2977 C.ar      1 <0>         0.3076
      6 C6          2.8785   -4.5513    2.4628 C.ar      1 <0>        -0.4908
      7 C7         -1.4628    0.1636    1.3526 C.2       1 <0>         0.5994
      8 C8          0.8654   -1.4427    3.2413 C.2       1 <0>         0.6462
      9 C9         -5.5866   -1.9509    4.3621 C.cat     1 <0>         0.6305
     10 C10         6.4147   -3.6782    3.5763 C.3       1 <0>        -0.0319
     11 C11         2.1918    0.8805    0.7195 C.3       1 <0>        -0.0918
     12 C12         0.2821   -0.3679   -0.3105 C.3       1 <0>        -0.0841
     13 C13         1.6113    0.6116    2.1020 C.3       1 <0>         0.0870
     14 C14         4.9375   -4.1225    5.5597 C.3       1 <0>         0.2023
     15 C15        -0.2506   -0.7126    1.0828 C.3       1 <0>         0.0778
     16 C16         6.3180   -4.3739    4.9439 C.3       1 <0>        -0.0746
     17 C17         1.0859    0.9390   -0.3376 C.3       1 <0>        -0.0681
     18 C18         6.6369   -5.8702    4.8481 C.3       1 <0>        -0.0944
     19 C19         1.6740    1.1859   -1.7255 C.3       1 <0>        -0.0918
     20 C20        -2.2331   -3.6727    3.9110 C.3       1 <0>        -0.1192
     21 C21        -1.3133   -2.4479    3.9716 C.3       1 <0>        -0.0916
     22 C22        -3.5726   -3.4201    4.5920 C.3       1 <0>         0.1883
     23 C23        -0.0078   -2.6730    3.2260 C.3       1 <0>         0.1952
     24 N1          3.8720   -4.5353    4.6659 N.pl3     1 <0>        -0.7670
     25 N2          0.7744   -0.5925    2.1333 N.am      1 <0>        -0.4509
     26 N3         -6.2639   -0.9089    3.7373 N.pl3     1 <0>        -0.8477
     27 N4         -6.1992   -2.6234    5.4140 N.pl3     1 <0>        -0.8633
     28 N5         -4.3046   -2.3352    3.9546 N.pl3     1 <0>        -0.7419
     29 N6          0.7961   -3.6905    3.9267 N.pl3     1 <0>        -0.8860
     30 O1         -1.4385    1.2323    1.9447 O.2       1 <0>        -0.5199
     31 O2          1.6103   -1.2468    4.2054 O.2       1 <0>        -0.6131
     32 O3          0.4439   -5.3314    1.9729 O.2       1 <0>        -0.6576
     33 O4          1.5968   -6.1309    4.0600 O.2       1 <0>        -0.6482
     34 O5         -2.5854   -0.4037    0.8474 O.3       1 <0>        -0.6303
     35 S1          1.3247   -5.0804    3.0977 S.o2      1 <0>         1.5193
     36 H1          4.2441   -3.7946   -0.5573 H         1 <0>         0.1426
     37 H2          6.2192   -3.4050    0.8758 H         1 <0>         0.1398
     38 H3          2.1006   -4.5409    0.4604 H         1 <0>         0.1599
     39 H4          7.3229   -4.0105    3.0588 H         1 <0>         0.0574
     40 H5          6.4984   -2.5945    3.7281 H         1 <0>         0.0629
     41 H6          2.7495    1.8244    0.7335 H         1 <0>         0.0614
     42 H7          2.9066    0.0878    0.4640 H         1 <0>         0.0593
     43 H8          0.9336   -1.1873   -0.6438 H         1 <0>         0.0841
     44 H9         -0.5414   -0.3095   -1.0336 H         1 <0>         0.0679
     45 H10         2.4269    0.5309    2.8282 H         1 <0>         0.0826
     46 H11         0.9807    1.4504    2.4206 H         1 <0>         0.0383
     47 H12         4.8400   -4.6591    6.5101 H         1 <0>         0.0556
     48 H13         4.8208   -3.0544    5.7810 H         1 <0>         0.0415
     49 H14        -0.6325   -1.7382    1.0612 H         1 <0>         0.0851
     50 H15         7.0781   -3.9378    5.6038 H         1 <0>         0.0639
     51 H16         0.4173    1.7778   -0.1080 H         1 <0>         0.0584
     52 H17         6.7417   -6.1747    3.8024 H         1 <0>         0.0401
     53 H18         7.5719   -6.0982    5.3686 H         1 <0>         0.0440
     54 H19         5.8369   -6.4634    5.3010 H         1 <0>         0.0459
     55 H20         1.1081    0.6390   -2.4855 H         1 <0>         0.0456
     56 H21         1.6425    2.2512   -1.9725 H         1 <0>         0.0366
     57 H22         2.7156    0.8534   -1.7662 H         1 <0>         0.0474
     58 H23        -2.4032   -3.9506    2.8639 H         1 <0>         0.0800
     59 H24        -1.7473   -4.5245    4.4007 H         1 <0>         0.0681
     60 H25        -1.1204   -2.1894    5.0211 H         1 <0>         0.0740
     61 H26        -1.8263   -1.5854    3.5275 H         1 <0>         0.0631
     62 H27        -3.4379   -3.1690    5.6489 H         1 <0>         0.0970
     63 H28        -4.1962   -4.3179    4.5344 H         1 <0>         0.0725
     64 H29        -0.1638   -2.9774    2.1921 H         1 <0>         0.0839
     65 H30         2.9570   -4.7435    5.0468 H         1 <0>         0.4531
     66 H31        -5.8550   -0.3880    2.9661 H         1 <0>         0.4798
     67 H32        -7.1958   -0.6354    4.0404 H         1 <0>         0.4881
     68 H33        -5.7325   -3.3897    5.8930 H         1 <0>         0.4801
     69 H34        -7.1311   -2.3670    5.7313 H         1 <0>         0.4806
     70 H35        -3.8810   -1.8227    3.1796 H         1 <0>         0.4689
     71 H36         1.3354   -3.3564    4.7325 H         1 <0>         0.4505
     72 H37        -3.3805    0.1466    1.0133 H         1 <0>         0.4443
@<TRIPOS>BOND
     1    1    2 ar
     2    1    3 ar
     3    2    4 ar
     4    3    6 ar
     5    4    5 ar
     6    4   10 1
     7    5    6 ar
     8    5   24 1
     9    6   35 1
    10    7   15 1
    11    7   30 2
    12    7   34 1
    13    8   23 1
    14    8   25 am
    15    8   31 2
    16    9   26 1
    17    9   27 1
    18    9   28 1
    19   10   16 1
    20   11   13 1
    21   11   17 1
    22   12   15 1
    23   12   17 1
    24   13   25 1
    25   14   16 1
    26   14   24 1
    27   15   25 1
    28   16   18 1
    29   17   19 1
    30   20   21 1
    31   20   22 1
    32   21   23 1
    33   22   28 1
    34   23   29 1
    35   29   35 1
    36   32   35 2
    37   33   35 2
    38    1   36 1
    39    2   37 1
    40    3   38 1
    41   10   39 1
    42   10   40 1
    43   11   41 1
    44   11   42 1
    45   12   43 1
    46   12   44 1
    47   13   45 1
    48   13   46 1
    49   14   47 1
    50   14   48 1
    51   15   49 1
    52   16   50 1
    53   17   51 1
    54   18   52 1
    55   18   53 1
    56   18   54 1
    57   19   55 1
    58   19   56 1
    59   19   57 1
    60   20   58 1
    61   20   59 1
    62   21   60 1
    63   21   61 1
    64   22   62 1
    65   22   63 1
    66   23   64 1
    67   24   65 1
    68   26   66 1
    69   26   67 1
    70   27   68 1
    71   27   69 1
    72   28   70 1
    73   29   71 1
    74   34   72 1
@<TRIPOS>MOLECULE
1dwc_ligand_37
   72    74     0     0     0
SMALL
USER_CHARGES

mmff94s_NoEstat = 75.16
@<TRIPOS>ATOM
      1 C1          1.6845   -5.9778    0.1844 C.ar      1 <0>        -0.1945
      2 C2          0.6520   -5.4496    0.9566 C.ar      1 <0>        -0.0294
      3 C3          1.9606   -5.4374   -1.0681 C.ar      1 <0>        -0.0143
      4 C4         -0.1093   -4.3725    0.4806 C.ar      1 <0>        -0.1552
      5 C5          0.1450   -3.8386   -0.7984 C.ar      1 <0>         0.3076
      6 C6          1.1982   -4.3739   -1.5539 C.ar      1 <0>        -0.4908
      7 C7          2.6281   -1.3042    2.5638 C.2       1 <0>         0.5994
      8 C8          2.9466   -1.3973   -0.6457 C.2       1 <0>         0.6462
      9 C9          6.7753    0.8568   -5.4736 C.cat     1 <0>         0.6305
     10 C10        -1.2292   -3.8175    1.3278 C.3       1 <0>        -0.0319
     11 C11         5.7543   -2.0741    1.7663 C.3       1 <0>        -0.0918
     12 C12         4.6161    0.1433    2.3333 C.3       1 <0>        -0.0841
     13 C13         5.2430   -1.7129    0.3758 C.3       1 <0>         0.0870
     14 C14        -1.7931   -2.3309   -0.6108 C.3       1 <0>         0.2023
     15 C15         3.4337   -0.4666    1.5844 C.3       1 <0>         0.0778
     16 C16        -1.5940   -2.3850    0.9075 C.3       1 <0>        -0.0746
     17 C17         5.6648   -0.9011    2.7560 C.3       1 <0>        -0.0681
     18 C18        -2.8431   -1.9049    1.6414 C.3       1 <0>        -0.0944
     19 C19         7.0265   -0.2323    2.9523 C.3       1 <0>        -0.0918
     20 C20         5.1203   -2.1076   -3.7746 C.3       1 <0>        -0.1192
     21 C21         4.5564   -1.3488   -2.5679 C.3       1 <0>        -0.0916
     22 C22         6.2766   -1.3646   -4.4322 C.3       1 <0>         0.1883
     23 C23         3.4544   -2.1251   -1.8653 C.3       1 <0>         0.1952
     24 N1         -0.5924   -2.7711   -1.2958 N.pl3     1 <0>        -0.7670
     25 N2          3.8547   -1.2301    0.4039 N.am      1 <0>        -0.4509
     26 N3          6.3666    2.1153   -5.9029 N.pl3     1 <0>        -0.8477
     27 N4          8.1063    0.4860   -5.6311 N.pl3     1 <0>        -0.8633
     28 N5          5.8764   -0.0411   -4.8880 N.pl3     1 <0>        -0.7419
     29 N6          2.2741   -2.2179   -2.7432 N.pl3     1 <0>        -0.8860
     30 O1          2.1401   -0.8907    3.6051 O.2       1 <0>        -0.5199
     31 O2          1.7818   -0.9917   -0.6208 O.2       1 <0>        -0.6131
     32 O3          2.6686   -4.5798   -3.6918 O.2       1 <0>        -0.6576
     33 O4          0.3811   -3.5494   -3.8650 O.2       1 <0>        -0.6482
     34 O5          2.5235   -2.5830    2.1269 O.3       1 <0>        -0.6303
     35 S1          1.6226   -3.7401   -3.1398 S.o2      1 <0>         1.5193
     36 H1          2.2754   -6.8081    0.5612 H         1 <0>         0.1426
     37 H2          0.4453   -5.8762    1.9353 H         1 <0>         0.1398
     38 H3          2.7663   -5.8367   -1.6758 H         1 <0>         0.1599
     39 H4         -2.0994   -4.4781    1.2245 H         1 <0>         0.0574
     40 H5         -0.9335   -3.8165    2.3842 H         1 <0>         0.0629
     41 H6          5.1450   -2.9020    2.1525 H         1 <0>         0.0614
     42 H7          6.7810   -2.4531    1.7029 H         1 <0>         0.0593
     43 H8          5.0903    0.8874    1.6785 H         1 <0>         0.0841
     44 H9          4.2733    0.6894    3.2215 H         1 <0>         0.0679
     45 H10         5.8537   -0.9171   -0.0665 H         1 <0>         0.0826
     46 H11         5.3167   -2.5850   -0.2811 H         1 <0>         0.0383
     47 H12        -2.6365   -2.9647   -0.9116 H         1 <0>         0.0556
     48 H13        -2.0279   -1.3080   -0.9257 H         1 <0>         0.0415
     49 H14         2.7622    0.3365    1.2577 H         1 <0>         0.0851
     50 H15        -0.7654   -1.7164    1.1777 H         1 <0>         0.0639
     51 H16         5.3768   -1.3130    3.7317 H         1 <0>         0.0584
     52 H17        -2.9604   -0.8225    1.5328 H         1 <0>         0.0401
     53 H18        -3.7366   -2.3905    1.2379 H         1 <0>         0.0440
     54 H19        -2.7758   -2.1387    2.7081 H         1 <0>         0.0459
     55 H20         7.5288   -0.6354    3.8367 H         1 <0>         0.0456
     56 H21         7.6683   -0.4045    2.0831 H         1 <0>         0.0366
     57 H22         6.9087    0.8473    3.0852 H         1 <0>         0.0474
     58 H23         5.4592   -3.1007   -3.4560 H         1 <0>         0.0800
     59 H24         4.3307   -2.2553   -4.5204 H         1 <0>         0.0681
     60 H25         4.1906   -0.3664   -2.8945 H         1 <0>         0.0740
     61 H26         5.3633   -1.1575   -1.8491 H         1 <0>         0.0631
     62 H27         6.6666   -1.9201   -5.2910 H         1 <0>         0.0970
     63 H28         7.0930   -1.2338   -3.7147 H         1 <0>         0.0725
     64 H29         3.7703   -3.1244   -1.5692 H         1 <0>         0.0839
     65 H30        -0.4235   -2.4715   -2.2481 H         1 <0>         0.4531
     66 H31         5.4041    2.4285   -5.8100 H         1 <0>         0.4798
     67 H32         7.0268    2.7620   -6.3283 H         1 <0>         0.4881
     68 H33         8.4388   -0.4263   -5.3285 H         1 <0>         0.4801
     69 H34         8.7827    1.1182   -6.0523 H         1 <0>         0.4806
     70 H35         4.9060    0.2597   -4.7858 H         1 <0>         0.4689
     71 H36         1.6613   -1.3957   -2.7560 H         1 <0>         0.4505
     72 H37         2.0077   -3.1411    2.7472 H         1 <0>         0.4443
@<TRIPOS>BOND
     1    1    2 ar
     2    1    3 ar
     3    2    4 ar
     4    3    6 ar
     5    4    5 ar
     6    4   10 1
     7    5    6 ar
     8    5   24 1
     9    6   35 1
    10    7   15 1
    11    7   30 2
    12    7   34 1
    13    8   23 1
    14    8   25 am
    15    8   31 2
    16    9   26 1
    17    9   27 1
    18    9   28 1
    19   10   16 1
    20   11   13 1
    21   11   17 1
    22   12   15 1
    23   12   17 1
    24   13   25 1
    25   14   16 1
    26   14   24 1
    27   15   25 1
    28   16   18 1
    29   17   19 1
    30   20   21 1
    31   20   22 1
    32   21   23 1
    33   22   28 1
    34   23   29 1
    35   29   35 1
    36   32   35 2
    37   33   35 2
    38    1   36 1
    39    2   37 1
    40    3   38 1
    41   10   39 1
    42   10   40 1
    43   11   41 1
    44   11   42 1
    45   12   43 1
    46   12   44 1
    47   13   45 1
    48   13   46 1
    49   14   47 1
    50   14   48 1
    51   15   49 1
    52   16   50 1
    53   17   51 1
    54   18   52 1
    55   18   53 1
    56   18   54 1
    57   19   55 1
    58   19   56 1
    59   19   57 1
    60   20   58 1
    61   20   59 1
    62   21   60 1
    63   21   61 1
    64   22   62 1
    65   22   63 1
    66   23   64 1
    67   24   65 1
    68   26   66 1
    69   26   67 1
    70   27   68 1
    71   27   69 1
    72   28   70 1
    73   29   71 1
    74   34   72 1
@<TRIPOS>MOLECULE
1dwc_ligand_38
   72    74     0     0     0
SMALL
USER_CHARGES

mmff94s_NoEstat = 75.23
@<TRIPOS>ATOM
      1 C1          7.4663   -1.7419   -5.0555 C.ar      1 <0>        -0.1945
      2 C2          7.8189   -3.0367   -5.4300 C.ar      1 <0>        -0.0294
      3 C3          6.9552   -1.5029   -3.7834 C.ar      1 <0>        -0.0143
      4 C4          7.6581   -4.1030   -4.5334 C.ar      1 <0>        -0.1552
      5 C5          7.1684   -3.8650   -3.2343 C.ar      1 <0>         0.3076
      6 C6          6.8044   -2.5574   -2.8813 C.ar      1 <0>        -0.4908
      7 C7          2.8752    1.3115    1.1058 C.2       1 <0>         0.5994
      8 C8          2.9466   -1.3973   -0.6457 C.2       1 <0>         0.6462
      9 C9          0.3678   -6.6076   -3.6872 C.cat     1 <0>         0.6305
     10 C10         8.0535   -5.4978   -4.9550 C.3       1 <0>        -0.0319
     11 C11         2.3641    2.0271   -2.0925 C.3       1 <0>        -0.0918
     12 C12         0.7649    1.6065   -0.1433 C.3       1 <0>        -0.0841
     13 C13         2.2856    0.5067   -2.1800 C.3       1 <0>         0.0870
     14 C14         7.5357   -6.2183   -2.6043 C.3       1 <0>         0.2023
     15 C15         1.8211    0.5897    0.2827 C.3       1 <0>         0.0778
     16 C16         7.3986   -6.5839   -4.0862 C.3       1 <0>        -0.0746
     17 C17         1.2898    2.6259   -1.1701 C.3       1 <0>        -0.0681
     18 C18         5.9378   -6.8286   -4.4814 C.3       1 <0>        -0.0944
     19 C19         0.1276    3.2108   -1.9746 C.3       1 <0>        -0.0918
     20 C20         2.8965   -3.7759   -3.7050 C.3       1 <0>        -0.1192
     21 C21         2.4114   -3.0756   -2.4306 C.3       1 <0>        -0.0916
     22 C22         1.8232   -4.6695   -4.3142 C.3       1 <0>         0.1883
     23 C23         3.4544   -2.1251   -1.8653 C.3       1 <0>         0.1952
     24 N1          6.9914   -4.9024   -2.3274 N.pl3     1 <0>        -0.7670
     25 N2          2.3949   -0.1309   -0.8598 N.am      1 <0>        -0.4509
     26 N3         -0.0297   -7.5831   -2.7787 N.pl3     1 <0>        -0.8477
     27 N4         -0.2625   -6.5368   -4.9248 N.pl3     1 <0>        -0.8633
     28 N5          1.3862   -5.6985   -3.3816 N.pl3     1 <0>        -0.7419
     29 N6          4.6097   -2.8934   -1.3678 N.pl3     1 <0>        -0.8860
     30 O1          2.6539    1.9546    2.1211 O.2       1 <0>        -0.5199
     31 O2          3.0377   -1.9312    0.4627 O.2       1 <0>        -0.6131
     32 O3          6.9529   -2.8526   -0.2994 O.2       1 <0>        -0.6576
     33 O4          5.9925   -0.7285   -1.2427 O.2       1 <0>        -0.6482
     34 O5          4.1045    1.1486    0.5584 O.3       1 <0>        -0.6303
     35 S1          6.1490   -2.1694   -1.2948 S.o2      1 <0>         1.5193
     36 H1          7.5871   -0.9204   -5.7565 H         1 <0>         0.1426
     37 H2          8.2148   -3.2146   -6.4271 H         1 <0>         0.1398
     38 H3          6.6714   -0.4992   -3.4825 H         1 <0>         0.1599
     39 H4          7.7935   -5.6635   -6.0077 H         1 <0>         0.0574
     40 H5          9.1448   -5.5757   -4.8678 H         1 <0>         0.0629
     41 H6          3.3521    2.2982   -1.6971 H         1 <0>         0.0614
     42 H7          2.3049    2.4652   -3.0956 H         1 <0>         0.0593
     43 H8         -0.0830    1.0592   -0.5778 H         1 <0>         0.0841
     44 H9          0.3696    2.1440    0.7282 H         1 <0>         0.0679
     45 H10         1.3285    0.1928   -2.6129 H         1 <0>         0.0826
     46 H11         3.0787    0.1346   -2.8358 H         1 <0>         0.0383
     47 H12         7.0247   -6.9593   -1.9795 H         1 <0>         0.0556
     48 H13         8.5943   -6.2318   -2.3170 H         1 <0>         0.0415
     49 H14         1.3638   -0.1412    0.9605 H         1 <0>         0.0851
     50 H15         7.9285   -7.5282   -4.2621 H         1 <0>         0.0639
     51 H16         1.7477    3.4645   -0.6301 H         1 <0>         0.0584
     52 H17         5.6097   -6.0886   -5.2174 H         1 <0>         0.0401
     53 H18         5.8194   -7.8248   -4.9181 H         1 <0>         0.0440
     54 H19         5.2856   -6.7563   -3.6060 H         1 <0>         0.0459
     55 H20         0.4103    4.1714   -2.4154 H         1 <0>         0.0456
     56 H21        -0.1604    2.5322   -2.7831 H         1 <0>         0.0366
     57 H22        -0.7432    3.3698   -1.3317 H         1 <0>         0.0474
     58 H23         3.2051   -3.0234   -4.4407 H         1 <0>         0.0800
     59 H24         3.7751   -4.3904   -3.4776 H         1 <0>         0.0681
     60 H25         2.1309   -3.8309   -1.6847 H         1 <0>         0.0740
     61 H26         1.5011   -2.5046   -2.6534 H         1 <0>         0.0631
     62 H27         2.1863   -5.1610   -5.2224 H         1 <0>         0.0970
     63 H28         0.9460   -4.0714   -4.5808 H         1 <0>         0.0725
     64 H29         3.7902   -1.3903   -2.5956 H         1 <0>         0.0839
     65 H30         6.7085   -4.6707   -1.3830 H         1 <0>         0.4531
     66 H31         0.4035   -7.6739   -1.8636 H         1 <0>         0.4798
     67 H32        -0.7709   -8.2408   -3.0092 H         1 <0>         0.4881
     68 H33         0.0033   -5.8361   -5.6125 H         1 <0>         0.4801
     69 H34        -1.0069   -7.1835   -5.1744 H         1 <0>         0.4806
     70 H35         1.8300   -5.7754   -2.4652 H         1 <0>         0.4689
     71 H36         4.3912   -3.6637   -0.7270 H         1 <0>         0.4505
     72 H37         4.7996    1.6094    1.0749 H         1 <0>         0.4443
@<TRIPOS>BOND
     1    1    2 ar
     2    1    3 ar
     3    2    4 ar
     4    3    6 ar
     5    4    5 ar
     6    4   10 1
     7    5    6 ar
     8    5   24 1
     9    6   35 1
    10    7   15 1
    11    7   30 2
    12    7   34 1
    13    8   23 1
    14    8   25 am
    15    8   31 2
    16    9   26 1
    17    9   27 1
    18    9   28 1
    19   10   16 1
    20   11   13 1
    21   11   17 1
    22   12   15 1
    23   12   17 1
    24   13   25 1
    25   14   16 1
    26   14   24 1
    27   15   25 1
    28   16   18 1
    29   17   19 1
    30   20   21 1
    31   20   22 1
    32   21   23 1
    33   22   28 1
    34   23   29 1
    35   29   35 1
    36   32   35 2
    37   33   35 2
    38    1   36 1
    39    2   37 1
    40    3   38 1
    41   10   39 1
    42   10   40 1
    43   11   41 1
    44   11   42 1
    45   12   43 1
    46   12   44 1
    47   13   45 1
    48   13   46 1
    49   14   47 1
    50   14   48 1
    51   15   49 1
    52   16   50 1
    53   17   51 1
    54   18   52 1
    55   18   53 1
    56   18   54 1
    57   19   55 1
    58   19   56 1
    59   19   57 1
    60   20   58 1
    61   20   59 1
    62   21   60 1
    63   21   61 1
    64   22   62 1
    65   22   63 1
    66   23   64 1
    67   24   65 1
    68   26   66 1
    69   26   67 1
    70   27   68 1
    71   27   69 1
    72   28   70 1
    73   29   71 1
    74   34   72 1
@<TRIPOS>MOLECULE
1dwc_ligand_39
   72    74     0     0     0
SMALL
USER_CHARGES

mmff94s_NoEstat = 75.43
@<TRIPOS>ATOM
      1 C1         -3.3475   -6.3503    1.8791 C.ar      1 <0>        -0.1945
      2 C2         -3.9958   -5.9344    0.7180 C.ar      1 <0>        -0.0294
      3 C3         -2.9512   -5.4113    2.8268 C.ar      1 <0>        -0.0143
      4 C4         -4.2554   -4.5738    0.4999 C.ar      1 <0>        -0.1552
      5 C5         -3.8316   -3.6142    1.4408 C.ar      1 <0>         0.3076
      6 C6         -3.1944   -4.0540    2.6102 C.ar      1 <0>        -0.4908
      7 C7          1.8094   -2.2220    6.4146 C.2       1 <0>         0.5994
      8 C8          0.8654   -1.4427    3.2413 C.2       1 <0>         0.6462
      9 C9          1.5497   -7.0495    4.2712 C.cat     1 <0>         0.6305
     10 C10        -4.9524   -4.1403   -0.7675 C.3       1 <0>        -0.0319
     11 C11         1.3547    1.4153    5.5015 C.3       1 <0>        -0.0918
     12 C12         0.1935   -0.3932    6.7850 C.3       1 <0>        -0.0841
     13 C13         1.9116    0.3681    4.5455 C.3       1 <0>         0.0870
     14 C14        -4.5641   -1.7769   -0.0261 C.3       1 <0>         0.2023
     15 C15         0.6811   -1.4322    5.7719 C.3       1 <0>         0.0778
     16 C16        -5.5921   -2.7519   -0.6095 C.3       1 <0>        -0.0746
     17 C17         1.1262    0.8207    6.8935 C.3       1 <0>        -0.0681
     18 C18        -6.1301   -2.2464   -1.9453 C.3       1 <0>        -0.0944
     19 C19         0.5462    1.8676    7.8426 C.3       1 <0>        -0.0918
     20 C20         1.7689   -4.0083    2.0091 C.3       1 <0>        -0.1192
     21 C21         0.3004   -3.5693    2.0376 C.3       1 <0>        -0.0916
     22 C22         2.1396   -4.8550    3.2204 C.3       1 <0>         0.1883
     23 C23        -0.0078   -2.6730    3.2260 C.3       1 <0>         0.1952
     24 N1         -4.0757   -2.2595    1.2518 N.pl3     1 <0>        -0.7670
     25 N2          1.0754   -0.8353    4.4846 N.am      1 <0>        -0.4509
     26 N3          0.7843   -8.2104    4.3089 N.pl3     1 <0>        -0.8477
     27 N4          2.5289   -6.8514    5.2386 N.pl3     1 <0>        -0.8633
     28 N5          1.3547   -6.0796    3.2820 N.pl3     1 <0>        -0.7419
     29 N6         -1.3760   -2.1385    3.1042 N.pl3     1 <0>        -0.8860
     30 O1          2.9993   -1.9718    6.2928 O.2       1 <0>        -0.5199
     31 O2          1.3411   -1.0305    2.1799 O.2       1 <0>        -0.6131
     32 O3         -3.7495   -1.9880    4.0928 O.2       1 <0>        -0.6576
     33 O4         -2.1627   -3.7355    4.9602 O.2       1 <0>        -0.6482
     34 O5          1.3170   -3.2520    7.1454 O.3       1 <0>        -0.6303
     35 S1         -2.6746   -2.9347    3.8647 S.o2      1 <0>         1.5193
     36 H1         -3.1550   -7.4065    2.0458 H         1 <0>         0.1426
     37 H2         -4.3045   -6.6753   -0.0157 H         1 <0>         0.1398
     38 H3         -2.4509   -5.7242    3.7377 H         1 <0>         0.1599
     39 H4         -4.2148   -4.1296   -1.5800 H         1 <0>         0.0574
     40 H5         -5.7315   -4.8656   -1.0323 H         1 <0>         0.0629
     41 H6          2.0492    2.2615    5.5629 H         1 <0>         0.0614
     42 H7          0.4079    1.8038    5.1048 H         1 <0>         0.0593
     43 H8         -0.8003   -0.0449    6.4717 H         1 <0>         0.0841
     44 H9          0.0668   -0.8506    7.7745 H         1 <0>         0.0679
     45 H10         2.0225    0.8091    3.5494 H         1 <0>         0.0826
     46 H11         2.9105    0.0502    4.8680 H         1 <0>         0.0383
     47 H12        -3.7191   -1.6505   -0.7142 H         1 <0>         0.0556
     48 H13        -5.0170   -0.7893    0.1158 H         1 <0>         0.0415
     49 H14        -0.1232   -2.1562    5.6073 H         1 <0>         0.0851
     50 H15        -6.4375   -2.8304    0.0874 H         1 <0>         0.0639
     51 H16         2.0901    0.4983    7.3061 H         1 <0>         0.0584
     52 H17        -6.7909   -1.3877   -1.7933 H         1 <0>         0.0401
     53 H18        -5.3086   -1.9377   -2.5987 H         1 <0>         0.0440
     54 H19        -6.6976   -3.0320   -2.4531 H         1 <0>         0.0459
     55 H20        -0.3870    1.5087    8.2868 H         1 <0>         0.0456
     56 H21         1.2507    2.0862    8.6507 H         1 <0>         0.0366
     57 H22         0.3370    2.7982    7.3067 H         1 <0>         0.0474
     58 H23         1.9621   -4.5788    1.0926 H         1 <0>         0.0800
     59 H24         2.4183   -3.1256    1.9878 H         1 <0>         0.0681
     60 H25        -0.3448   -4.4577    2.0448 H         1 <0>         0.0740
     61 H26         0.0666   -3.0218    1.1158 H         1 <0>         0.0631
     62 H27         1.9858   -4.3013    4.1521 H         1 <0>         0.0970
     63 H28         3.1948   -5.1415    3.1673 H         1 <0>         0.0725
     64 H29         0.1003   -3.1895    4.1787 H         1 <0>         0.0839
     65 H30        -3.6865   -1.6028    1.9171 H         1 <0>         0.4531
     66 H31         0.0565   -8.3968    3.6242 H         1 <0>         0.4798
     67 H32         0.9323   -8.9105    5.0322 H         1 <0>         0.4881
     68 H33         3.1063   -6.0140    5.2405 H         1 <0>         0.4801
     69 H34         2.6942   -7.5396    5.9692 H         1 <0>         0.4806
     70 H35         0.6284   -6.2533    2.5856 H         1 <0>         0.4689
     71 H36        -1.4476   -1.1318    2.9219 H         1 <0>         0.4505
     72 H37         2.0308   -3.7759    7.5675 H         1 <0>         0.4443
@<TRIPOS>BOND
     1    1    2 ar
     2    1    3 ar
     3    2    4 ar
     4    3    6 ar
     5    4    5 ar
     6    4   10 1
     7    5    6 ar
     8    5   24 1
     9    6   35 1
    10    7   15 1
    11    7   30 2
    12    7   34 1
    13    8   23 1
    14    8   25 am
    15    8   31 2
    16    9   26 1
    17    9   27 1
    18    9   28 1
    19   10   16 1
    20   11   13 1
    21   11   17 1
    22   12   15 1
    23   12   17 1
    24   13   25 1
    25   14   16 1
    26   14   24 1
    27   15   25 1
    28   16   18 1
    29   17   19 1
    30   20   21 1
    31   20   22 1
    32   21   23 1
    33   22   28 1
    34   23   29 1
    35   29   35 1
    36   32   35 2
    37   33   35 2
    38    1   36 1
    39    2   37 1
    40    3   38 1
    41   10   39 1
    42   10   40 1
    43   11   41 1
    44   11   42 1
    45   12   43 1
    46   12   44 1
    47   13   45 1
    48   13   46 1
    49   14   47 1
    50   14   48 1
    51   15   49 1
    52   16   50 1
    53   17   51 1
    54   18   52 1
    55   18   53 1
    56   18   54 1
    57   19   55 1
    58   19   56 1
    59   19   57 1
    60   20   58 1
    61   20   59 1
    62   21   60 1
    63   21   61 1
    64   22   62 1
    65   22   63 1
    66   23   64 1
    67   24   65 1
    68   26   66 1
    69   26   67 1
    70   27   68 1
    71   27   69 1
    72   28   70 1
    73   29   71 1
    74   34   72 1
@<TRIPOS>MOLECULE
1dwc_ligand_40
   72    74     0     0     0
SMALL
USER_CHARGES

mmff94s_NoEstat = 75.45
@<TRIPOS>ATOM
      1 C1         -1.5516   -4.4277    7.3298 C.ar      1 <0>        -0.1945
      2 C2         -2.3348   -5.5104    6.9352 C.ar      1 <0>        -0.0294
      3 C3         -1.5385   -3.2654    6.5644 C.ar      1 <0>        -0.0143
      4 C4         -3.1142   -5.4347    5.7720 C.ar      1 <0>        -0.1552
      5 C5         -3.0840   -4.2723    4.9761 C.ar      1 <0>         0.3076
      6 C6         -2.3015   -3.1877    5.3982 C.ar      1 <0>        -0.4908
      7 C7          4.0428   -2.6510    3.1279 C.2       1 <0>         0.5994
      8 C8          0.8654   -1.4427    3.2413 C.2       1 <0>         0.6462
      9 C9         -0.0382   -5.7761   -1.6019 C.cat     1 <0>         0.6305
     10 C10        -3.9512   -6.6204    5.3554 C.3       1 <0>        -0.0319
     11 C11         3.0349   -0.4758    6.0475 C.3       1 <0>        -0.0918
     12 C12         3.4817   -2.8819    5.5206 C.3       1 <0>        -0.0841
     13 C13         2.5314   -0.2662    4.6251 C.3       1 <0>         0.0870
     14 C14        -4.5113   -5.3376    3.2753 C.3       1 <0>         0.2023
     15 C15         2.8926   -2.6899    4.1206 C.3       1 <0>         0.0778
     16 C16        -5.0831   -6.2018    4.4040 C.3       1 <0>        -0.0746
     17 C17         4.0802   -1.5931    6.1000 C.3       1 <0>        -0.0681
     18 C18        -5.8039   -7.4257    3.8454 C.3       1 <0>        -0.0944
     19 C19         4.5654   -1.8157    7.5311 C.3       1 <0>        -0.0918
     20 C20        -0.5404   -4.8511    2.0458 C.3       1 <0>        -0.1192
     21 C21         0.3004   -3.5693    2.0376 C.3       1 <0>        -0.0916
     22 C22        -0.1768   -5.7847    0.8978 C.3       1 <0>         0.1883
     23 C23        -0.0078   -2.6730    3.2260 C.3       1 <0>         0.1952
     24 N1         -3.8463   -4.1684    3.8190 N.pl3     1 <0>        -0.7670
     25 N2          2.0252   -1.5038    4.0223 N.am      1 <0>        -0.4509
     26 N3         -0.2239   -5.1414   -2.8257 N.pl3     1 <0>        -0.8477
     27 N4          0.4773   -7.0675   -1.5794 N.pl3     1 <0>        -0.8633
     28 N5         -0.3589   -5.1430   -0.3963 N.pl3     1 <0>        -0.7419
     29 N6         -1.3760   -2.1385    3.1042 N.pl3     1 <0>        -0.8860
     30 O1          4.8907   -3.5219    3.0017 O.2       1 <0>        -0.5199
     31 O2          0.5240   -0.4555    2.5844 O.2       1 <0>        -0.6131
     32 O3         -3.5960   -1.3232    4.1243 O.2       1 <0>        -0.6576
     33 O4         -1.4314   -0.7555    5.2719 O.2       1 <0>        -0.6482
     34 O5          4.0050   -1.5108    2.3959 O.3       1 <0>        -0.6303
     35 S1         -2.2397   -1.6774    4.4970 S.o2      1 <0>         1.5193
     36 H1         -0.9549   -4.4896    8.2356 H         1 <0>         0.1426
     37 H2         -2.3412   -6.4135    7.5409 H         1 <0>         0.1398
     38 H3         -0.9370   -2.4135    6.8653 H         1 <0>         0.1599
     39 H4         -3.2943   -7.3516    4.8675 H         1 <0>         0.0574
     40 H5         -4.3865   -7.1001    6.2407 H         1 <0>         0.0629
     41 H6          3.4643    0.4595    6.4257 H         1 <0>         0.0614
     42 H7          2.1893   -0.7290    6.6997 H         1 <0>         0.0593
     43 H8          2.6805   -3.2276    6.1882 H         1 <0>         0.0841
     44 H9          4.2439   -3.6714    5.5123 H         1 <0>         0.0679
     45 H10         1.7550    0.5058    4.6255 H         1 <0>         0.0826
     46 H11         3.3431    0.0962    3.9827 H         1 <0>         0.0383
     47 H12        -3.7986   -5.9137    2.6721 H         1 <0>         0.0556
     48 H13        -5.3138   -5.0110    2.6047 H         1 <0>         0.0415
     49 H14         2.3173   -3.5850    3.8636 H         1 <0>         0.0851
     50 H15        -5.8148   -5.6064    4.9667 H         1 <0>         0.0639
     51 H16         4.9487   -1.2974    5.4988 H         1 <0>         0.0584
     52 H17        -6.7464   -7.1341    3.3725 H         1 <0>         0.0401
     53 H18        -5.1841   -7.9286    3.0971 H         1 <0>         0.0440
     54 H19        -6.0259   -8.1390    4.6448 H         1 <0>         0.0459
     55 H20         4.4326   -2.8615    7.8238 H         1 <0>         0.0456
     56 H21         5.6267   -1.5650    7.6207 H         1 <0>         0.0366
     57 H22         4.0032   -1.1886    8.2295 H         1 <0>         0.0474
     58 H23        -0.4002   -5.3741    2.9994 H         1 <0>         0.0800
     59 H24        -1.6035   -4.5964    1.9658 H         1 <0>         0.0681
     60 H25         0.1357   -3.0322    1.0943 H         1 <0>         0.0740
     61 H26         1.3654   -3.8328    2.0643 H         1 <0>         0.0631
     62 H27        -0.7862   -6.6937    0.9190 H         1 <0>         0.0970
     63 H28         0.8744   -6.0800    0.9749 H         1 <0>         0.0725
     64 H29         0.1003   -3.1895    4.1787 H         1 <0>         0.0839
     65 H30        -3.7341   -3.3447    3.2409 H         1 <0>         0.4531
     66 H31        -0.5995   -4.1991   -2.8910 H         1 <0>         0.4798
     67 H32         0.0114   -5.6094   -3.6979 H         1 <0>         0.4881
     68 H33         0.6256   -7.5607   -0.7023 H         1 <0>         0.4801
     69 H34         0.7207   -7.5524   -2.4398 H         1 <0>         0.4806
     70 H35        -0.7354   -4.1951   -0.4451 H         1 <0>         0.4689
     71 H36        -1.6042   -1.6955    2.2078 H         1 <0>         0.4505
     72 H37         4.7415   -1.4658    1.7496 H         1 <0>         0.4443
@<TRIPOS>BOND
     1    1    2 ar
     2    1    3 ar
     3    2    4 ar
     4    3    6 ar
     5    4    5 ar
     6    4   10 1
     7    5    6 ar
     8    5   24 1
     9    6   35 1
    10    7   15 1
    11    7   30 2
    12    7   34 1
    13    8   23 1
    14    8   25 am
    15    8   31 2
    16    9   26 1
    17    9   27 1
    18    9   28 1
    19   10   16 1
    20   11   13 1
    21   11   17 1
    22   12   15 1
    23   12   17 1
    24   13   25 1
    25   14   16 1
    26   14   24 1
    27   15   25 1
    28   16   18 1
    29   17   19 1
    30   20   21 1
    31   20   22 1
    32   21   23 1
    33   22   28 1
    34   23   29 1
    35   29   35 1
    36   32   35 2
    37   33   35 2
    38    1   36 1
    39    2   37 1
    40    3   38 1
    41   10   39 1
    42   10   40 1
    43   11   41 1
    44   11   42 1
    45   12   43 1
    46   12   44 1
    47   13   45 1
    48   13   46 1
    49   14   47 1
    50   14   48 1
    51   15   49 1
    52   16   50 1
    53   17   51 1
    54   18   52 1
    55   18   53 1
    56   18   54 1
    57   19   55 1
    58   19   56 1
    59   19   57 1
    60   20   58 1
    61   20   59 1
    62   21   60 1
    63   21   61 1
    64   22   62 1
    65   22   63 1
    66   23   64 1
    67   24   65 1
    68   26   66 1
    69   26   67 1
    70   27   68 1
    71   27   69 1
    72   28   70 1
    73   29   71 1
    74   34   72 1
@<TRIPOS>MOLECULE
1dwc_ligand_41
   72    74     0     0     0
SMALL
USER_CHARGES

mmff94s_NoEstat = 75.51
@<TRIPOS>ATOM
      1 C1         -3.3475   -6.3503    1.8791 C.ar      1 <0>        -0.1945
      2 C2         -3.9958   -5.9344    0.7180 C.ar      1 <0>        -0.0294
      3 C3         -2.9512   -5.4113    2.8268 C.ar      1 <0>        -0.0143
      4 C4         -4.2554   -4.5738    0.4999 C.ar      1 <0>        -0.1552
      5 C5         -3.8316   -3.6142    1.4408 C.ar      1 <0>         0.3076
      6 C6         -3.1944   -4.0540    2.6102 C.ar      1 <0>        -0.4908
      7 C7          3.5686   -3.4379    3.7704 C.2       1 <0>         0.5994
      8 C8          0.8654   -1.4427    3.2413 C.2       1 <0>         0.6462
      9 C9          2.0746   -5.2044   -1.4852 C.cat     1 <0>         0.6305
     10 C10        -4.9524   -4.1403   -0.7675 C.3       1 <0>        -0.0319
     11 C11         3.4440   -0.0674    5.4719 C.3       1 <0>        -0.0918
     12 C12         3.1682   -2.4952    6.0163 C.3       1 <0>        -0.0841
     13 C13         2.9000   -0.3276    4.0730 C.3       1 <0>         0.0870
     14 C14        -4.5641   -1.7769   -0.0261 C.3       1 <0>         0.2023
     15 C15         2.5392   -2.7371    4.6417 C.3       1 <0>         0.0778
     16 C16        -5.5921   -2.7519   -0.6095 C.3       1 <0>        -0.0746
     17 C17         4.1435   -1.3104    6.0281 C.3       1 <0>        -0.0681
     18 C18        -6.1301   -2.2464   -1.9453 C.3       1 <0>        -0.0944
     19 C19         4.6673   -1.0527    7.4396 C.3       1 <0>        -0.0918
     20 C20         0.0249   -2.8727    0.7002 C.3       1 <0>        -0.1192
     21 C21         0.3004   -3.5693    2.0376 C.3       1 <0>        -0.0916
     22 C22         0.2602   -3.7963   -0.4886 C.3       1 <0>         0.1883
     23 C23        -0.0078   -2.6730    3.2260 C.3       1 <0>         0.1952
     24 N1         -4.0757   -2.2595    1.2518 N.pl3     1 <0>        -0.7670
     25 N2          2.0252   -1.5038    4.0223 N.am      1 <0>        -0.4509
     26 N3          3.3877   -5.6631   -1.4955 N.pl3     1 <0>        -0.8477
     27 N4          1.1890   -5.6621   -2.4548 N.pl3     1 <0>        -0.8633
     28 N5          1.6278   -4.2942   -0.5212 N.pl3     1 <0>        -0.7419
     29 N6         -1.3760   -2.1385    3.1042 N.pl3     1 <0>        -0.8860
     30 O1          4.3335   -2.8779    2.9993 O.2       1 <0>        -0.5199
     31 O2          0.5240   -0.4555    2.5844 O.2       1 <0>        -0.6131
     32 O3         -3.7495   -1.9880    4.0928 O.2       1 <0>        -0.6576
     33 O4         -2.1627   -3.7355    4.9602 O.2       1 <0>        -0.6482
     34 O5          3.5241   -4.7791    3.9616 O.3       1 <0>        -0.6303
     35 S1         -2.6746   -2.9347    3.8647 S.o2      1 <0>         1.5193
     36 H1         -3.1550   -7.4065    2.0458 H         1 <0>         0.1426
     37 H2         -4.3045   -6.6753   -0.0157 H         1 <0>         0.1398
     38 H3         -2.4509   -5.7242    3.7377 H         1 <0>         0.1599
     39 H4         -4.2148   -4.1296   -1.5800 H         1 <0>         0.0574
     40 H5         -5.7315   -4.8656   -1.0323 H         1 <0>         0.0629
     41 H6          4.1435    0.7764    5.4419 H         1 <0>         0.0614
     42 H7          2.6191    0.2214    6.1357 H         1 <0>         0.0593
     43 H8          2.3618   -2.2928    6.7345 H         1 <0>         0.0841
     44 H9          3.6813   -3.3988    6.3690 H         1 <0>         0.0679
     45 H10         2.3679    0.5618    3.7197 H         1 <0>         0.0826
     46 H11         3.7232   -0.5081    3.3711 H         1 <0>         0.0383
     47 H12        -3.7191   -1.6505   -0.7142 H         1 <0>         0.0556
     48 H13        -5.0170   -0.7893    0.1158 H         1 <0>         0.0415
     49 H14         1.7211   -3.4548    4.7590 H         1 <0>         0.0851
     50 H15        -6.4375   -2.8304    0.0874 H         1 <0>         0.0639
     51 H16         5.0063   -1.5479    5.3937 H         1 <0>         0.0584
     52 H17        -6.7909   -1.3877   -1.7933 H         1 <0>         0.0401
     53 H18        -5.3086   -1.9377   -2.5987 H         1 <0>         0.0440
     54 H19        -6.6976   -3.0320   -2.4531 H         1 <0>         0.0459
     55 H20         4.2777   -1.8006    8.1367 H         1 <0>         0.0456
     56 H21         5.7602   -1.1000    7.4588 H         1 <0>         0.0366
     57 H22         4.3590   -0.0627    7.7891 H         1 <0>         0.0474
     58 H23        -1.0105   -2.5120    0.6824 H         1 <0>         0.0800
     59 H24         0.6776   -1.9980    0.5976 H         1 <0>         0.0681
     60 H25         1.3460   -3.9033    2.0652 H         1 <0>         0.0740
     61 H26        -0.3175   -4.4733    2.1109 H         1 <0>         0.0631
     62 H27         0.0590   -3.2831   -1.4342 H         1 <0>         0.0970
     63 H28        -0.4054   -4.6631   -0.4257 H         1 <0>         0.0725
     64 H29         0.1003   -3.1895    4.1787 H         1 <0>         0.0839
     65 H30        -3.6865   -1.6028    1.9171 H         1 <0>         0.4531
     66 H31         4.0702   -5.3548   -0.8082 H         1 <0>         0.4798
     67 H32         3.7046   -6.3246   -2.2006 H         1 <0>         0.4881
     68 H33         0.2221   -5.3473   -2.4765 H         1 <0>         0.4801
     69 H34         1.4849   -6.3248   -3.1675 H         1 <0>         0.4806
     70 H35         2.3012   -3.9765    0.1776 H         1 <0>         0.4689
     71 H36        -1.4476   -1.1318    2.9219 H         1 <0>         0.4505
     72 H37         4.1809   -5.2504    3.4059 H         1 <0>         0.4443
@<TRIPOS>BOND
     1    1    2 ar
     2    1    3 ar
     3    2    4 ar
     4    3    6 ar
     5    4    5 ar
     6    4   10 1
     7    5    6 ar
     8    5   24 1
     9    6   35 1
    10    7   15 1
    11    7   30 2
    12    7   34 1
    13    8   23 1
    14    8   25 am
    15    8   31 2
    16    9   26 1
    17    9   27 1
    18    9   28 1
    19   10   16 1
    20   11   13 1
    21   11   17 1
    22   12   15 1
    23   12   17 1
    24   13   25 1
    25   14   16 1
    26   14   24 1
    27   15   25 1
    28   16   18 1
    29   17   19 1
    30   20   21 1
    31   20   22 1
    32   21   23 1
    33   22   28 1
    34   23   29 1
    35   29   35 1
    36   32   35 2
    37   33   35 2
    38    1   36 1
    39    2   37 1
    40    3   38 1
    41   10   39 1
    42   10   40 1
    43   11   41 1
    44   11   42 1
    45   12   43 1
    46   12   44 1
    47   13   45 1
    48   13   46 1
    49   14   47 1
    50   14   48 1
    51   15   49 1
    52   16   50 1
    53   17   51 1
    54   18   52 1
    55   18   53 1
    56   18   54 1
    57   19   55 1
    58   19   56 1
    59   19   57 1
    60   20   58 1
    61   20   59 1
    62   21   60 1
    63   21   61 1
    64   22   62 1
    65   22   63 1
    66   23   64 1
    67   24   65 1
    68   26   66 1
    69   26   67 1
    70   27   68 1
    71   27   69 1
    72   28   70 1
    73   29   71 1
    74   34   72 1
@<TRIPOS>MOLECULE
1dwc_ligand_42
   72    74     0     0     0
SMALL
USER_CHARGES

mmff94s_NoEstat = 75.52
@<TRIPOS>ATOM
      1 C1          6.5406    1.4245   -2.2182 C.ar      1 <0>        -0.1945
      2 C2          6.6985    1.8302   -0.8947 C.ar      1 <0>        -0.0294
      3 C3          6.3835    0.0742   -2.5155 C.ar      1 <0>        -0.0143
      4 C4          6.7040    0.8848    0.1410 C.ar      1 <0>        -0.1552
      5 C5          6.5167   -0.4809   -0.1490 C.ar      1 <0>         0.3076
      6 C6          6.3751   -0.8712   -1.4886 C.ar      1 <0>        -0.4908
      7 C7          2.8752    1.3115    1.1058 C.2       1 <0>         0.5994
      8 C8          2.9466   -1.3973   -0.6457 C.2       1 <0>         0.6462
      9 C9          1.5211   -6.2682   -6.2170 C.cat     1 <0>         0.6305
     10 C10         6.8681    1.3449    1.5697 C.3       1 <0>        -0.0319
     11 C11         2.3641    2.0271   -2.0925 C.3       1 <0>        -0.0918
     12 C12         0.7649    1.6065   -0.1433 C.3       1 <0>        -0.0841
     13 C13         2.2856    0.5067   -2.1800 C.3       1 <0>         0.0870
     14 C14         6.4788   -1.0425    2.2496 C.3       1 <0>         0.2023
     15 C15         1.8211    0.5897    0.2827 C.3       1 <0>         0.0778
     16 C16         7.3211    0.2120    2.5051 C.3       1 <0>        -0.0746
     17 C17         1.2898    2.6259   -1.1701 C.3       1 <0>        -0.0681
     18 C18         8.8220   -0.0713    2.3751 C.3       1 <0>        -0.0944
     19 C19         0.1276    3.2108   -1.9746 C.3       1 <0>        -0.0918
     20 C20         2.8965   -3.7759   -3.7050 C.3       1 <0>        -0.1192
     21 C21         2.4114   -3.0756   -2.4306 C.3       1 <0>        -0.0916
     22 C22         1.8232   -4.6695   -4.3142 C.3       1 <0>         0.1883
     23 C23         3.4544   -2.1251   -1.8653 C.3       1 <0>         0.1952
     24 N1          6.5251   -1.4407    0.8554 N.pl3     1 <0>        -0.7670
     25 N2          2.3949   -0.1309   -0.8598 N.am      1 <0>        -0.4509
     26 N3          2.0025   -6.9024   -7.3576 N.pl3     1 <0>        -0.8477
     27 N4          0.2351   -6.5562   -5.7729 N.pl3     1 <0>        -0.8633
     28 N5          2.3028   -5.3489   -5.5092 N.pl3     1 <0>        -0.7419
     29 N6          4.6097   -2.8934   -1.3678 N.pl3     1 <0>        -0.8860
     30 O1          3.9082    1.7887    0.6602 O.2       1 <0>        -0.5199
     31 O2          3.0377   -1.9312    0.4627 O.2       1 <0>        -0.6131
     32 O3          6.1698   -2.6265   -3.3996 O.2       1 <0>        -0.6576
     33 O4          7.1388   -3.3235   -1.1861 O.2       1 <0>        -0.6482
     34 O5          2.5161    1.3542    2.4121 O.3       1 <0>        -0.6303
     35 S1          6.1736   -2.5573   -1.9508 S.o2      1 <0>         1.5193
     36 H1          6.5435    2.1609   -3.0173 H         1 <0>         0.1426
     37 H2          6.8235    2.8872   -0.6719 H         1 <0>         0.1398
     38 H3          6.2656   -0.2543   -3.5434 H         1 <0>         0.1599
     39 H4          7.5861    2.1725    1.6211 H         1 <0>         0.0574
     40 H5          5.8975    1.7275    1.9104 H         1 <0>         0.0629
     41 H6          3.3521    2.2982   -1.6971 H         1 <0>         0.0614
     42 H7          2.3049    2.4652   -3.0956 H         1 <0>         0.0593
     43 H8         -0.0830    1.0592   -0.5778 H         1 <0>         0.0841
     44 H9          0.3696    2.1440    0.7282 H         1 <0>         0.0679
     45 H10         1.3285    0.1928   -2.6129 H         1 <0>         0.0826
     46 H11         3.0787    0.1346   -2.8358 H         1 <0>         0.0383
     47 H12         6.8300   -1.8717    2.8739 H         1 <0>         0.0556
     48 H13         5.4356   -0.8502    2.5290 H         1 <0>         0.0415
     49 H14         1.3638   -0.1412    0.9605 H         1 <0>         0.0851
     50 H15         7.1566    0.5367    3.5400 H         1 <0>         0.0639
     51 H16         1.7477    3.4645   -0.6301 H         1 <0>         0.0584
     52 H17         9.2504    0.4995    1.5459 H         1 <0>         0.0401
     53 H18         9.3470    0.2082    3.2934 H         1 <0>         0.0440
     54 H19         8.9975   -1.1349    2.1879 H         1 <0>         0.0459
     55 H20         0.4103    4.1714   -2.4154 H         1 <0>         0.0456
     56 H21        -0.1604    2.5322   -2.7831 H         1 <0>         0.0366
     57 H22        -0.7432    3.3698   -1.3317 H         1 <0>         0.0474
     58 H23         3.2051   -3.0234   -4.4407 H         1 <0>         0.0800
     59 H24         3.7751   -4.3904   -3.4776 H         1 <0>         0.0681
     60 H25         2.1309   -3.8309   -1.6847 H         1 <0>         0.0740
     61 H26         1.5011   -2.5046   -2.6534 H         1 <0>         0.0631
     62 H27         0.9326   -4.0920   -4.5817 H         1 <0>         0.0970
     63 H28         1.5245   -5.4384   -3.5946 H         1 <0>         0.0725
     64 H29         3.7902   -1.3903   -2.5956 H         1 <0>         0.0839
     65 H30         6.3115   -2.3985    0.6051 H         1 <0>         0.4531
     66 H31         2.9348   -6.7217   -7.7201 H         1 <0>         0.4798
     67 H32         1.4271   -7.5693   -7.8669 H         1 <0>         0.4881
     68 H33        -0.1482   -6.1107   -4.9428 H         1 <0>         0.4801
     69 H34        -0.3558   -7.2211   -6.2664 H         1 <0>         0.4806
     70 H35         3.2427   -5.1582   -5.8596 H         1 <0>         0.4689
     71 H36         4.5044   -3.3037   -0.4338 H         1 <0>         0.4505
     72 H37         3.1856    1.8153    2.9613 H         1 <0>         0.4443
@<TRIPOS>BOND
     1    1    2 ar
     2    1    3 ar
     3    2    4 ar
     4    3    6 ar
     5    4    5 ar
     6    4   10 1
     7    5    6 ar
     8    5   24 1
     9    6   35 1
    10    7   15 1
    11    7   30 2
    12    7   34 1
    13    8   23 1
    14    8   25 am
    15    8   31 2
    16    9   26 1
    17    9   27 1
    18    9   28 1
    19   10   16 1
    20   11   13 1
    21   11   17 1
    22   12   15 1
    23   12   17 1
    24   13   25 1
    25   14   16 1
    26   14   24 1
    27   15   25 1
    28   16   18 1
    29   17   19 1
    30   20   21 1
    31   20   22 1
    32   21   23 1
    33   22   28 1
    34   23   29 1
    35   29   35 1
    36   32   35 2
    37   33   35 2
    38    1   36 1
    39    2   37 1
    40    3   38 1
    41   10   39 1
    42   10   40 1
    43   11   41 1
    44   11   42 1
    45   12   43 1
    46   12   44 1
    47   13   45 1
    48   13   46 1
    49   14   47 1
    50   14   48 1
    51   15   49 1
    52   16   50 1
    53   17   51 1
    54   18   52 1
    55   18   53 1
    56   18   54 1
    57   19   55 1
    58   19   56 1
    59   19   57 1
    60   20   58 1
    61   20   59 1
    62   21   60 1
    63   21   61 1
    64   22   62 1
    65   22   63 1
    66   23   64 1
    67   24   65 1
    68   26   66 1
    69   26   67 1
    70   27   68 1
    71   27   69 1
    72   28   70 1
    73   29   71 1
    74   34   72 1
@<TRIPOS>MOLECULE
1dwc_ligand_43
   72    74     0     0     0
SMALL
USER_CHARGES

mmff94s_NoEstat = 75.54
@<TRIPOS>ATOM
      1 C1          3.3055   -6.8449   -1.9341 C.ar      1 <0>        -0.1945
      2 C2          3.8095   -7.1580   -3.1947 C.ar      1 <0>        -0.0294
      3 C3          2.5030   -5.7201   -1.7675 C.ar      1 <0>        -0.0143
      4 C4          3.5095   -6.3479   -4.2992 C.ar      1 <0>        -0.1552
      5 C5          2.7217   -5.1914   -4.1335 C.ar      1 <0>         0.3076
      6 C6          2.2111   -4.9017   -2.8599 C.ar      1 <0>        -0.4908
      7 C7          1.8102   -1.5505    2.3702 C.2       1 <0>         0.5994
      8 C8          2.9466   -1.3973   -0.6457 C.2       1 <0>         0.6462
      9 C9          6.7753    0.8568   -5.4736 C.cat     1 <0>         0.6305
     10 C10         4.0704   -6.6982   -5.6567 C.3       1 <0>        -0.0319
     11 C11         4.4920   -3.4807    2.0801 C.3       1 <0>        -0.0918
     12 C12         4.1798   -1.0721    2.8769 C.3       1 <0>        -0.0841
     13 C13         4.5658   -2.7774    0.7291 C.3       1 <0>         0.0870
     14 C14         3.0733   -4.5524   -6.4856 C.3       1 <0>         0.2023
     15 C15         3.1125   -1.0286    1.7861 C.3       1 <0>         0.0778
     16 C16         3.2586   -6.0435   -6.7854 C.3       1 <0>        -0.0746
     17 C17         4.5869   -2.5050    3.2643 C.3       1 <0>        -0.0681
     18 C18         3.9400   -6.2504   -8.1353 C.3       1 <0>        -0.0944
     19 C19         5.9882   -2.5079    3.8779 C.3       1 <0>        -0.0918
     20 C20         5.1203   -2.1076   -3.7746 C.3       1 <0>        -0.1192
     21 C21         4.5564   -1.3488   -2.5679 C.3       1 <0>        -0.0916
     22 C22         6.2766   -1.3646   -4.4322 C.3       1 <0>         0.1883
     23 C23         3.4544   -2.1251   -1.8653 C.3       1 <0>         0.1952
     24 N1          2.4075   -4.3705   -5.2096 N.pl3     1 <0>        -0.7670
     25 N2          3.5192   -1.7560    0.5781 N.am      1 <0>        -0.4509
     26 N3          6.3666    2.1153   -5.9029 N.pl3     1 <0>        -0.8477
     27 N4          8.1063    0.4860   -5.6311 N.pl3     1 <0>        -0.8633
     28 N5          5.8764   -0.0411   -4.8880 N.pl3     1 <0>        -0.7419
     29 N6          2.2741   -2.2179   -2.7432 N.pl3     1 <0>        -0.8860
     30 O1          1.2492   -1.0925    3.3546 O.2       1 <0>        -0.5199
     31 O2          2.0685   -0.5400   -0.7710 O.2       1 <0>        -0.6131
     32 O3          0.1927   -3.4494   -3.6292 O.2       1 <0>        -0.6576
     33 O4          0.7527   -3.5815   -1.1810 O.2       1 <0>        -0.6482
     34 O5          1.3501   -2.6026    1.6500 O.3       1 <0>        -0.6303
     35 S1          1.1775   -3.5081   -2.5659 S.o2      1 <0>         1.5193
     36 H1          3.5358   -7.4800   -1.0832 H         1 <0>         0.1426
     37 H2          4.4333   -8.0405   -3.3162 H         1 <0>         0.1398
     38 H3          2.0998   -5.4697   -0.7914 H         1 <0>         0.1599
     39 H4          5.1147   -6.3633   -5.6949 H         1 <0>         0.0574
     40 H5          4.0627   -7.7864   -5.7947 H         1 <0>         0.0629
     41 H6          3.5311   -4.0088    2.1410 H         1 <0>         0.0614
     42 H7          5.2694   -4.2509    2.1463 H         1 <0>         0.0593
     43 H8          5.0641   -0.5305    2.5137 H         1 <0>         0.0841
     44 H9          3.8399   -0.5392    3.7741 H         1 <0>         0.0679
     45 H10         5.5312   -2.2723    0.6079 H         1 <0>         0.0826
     46 H11         4.4795   -3.5150   -0.0747 H         1 <0>         0.0383
     47 H12         4.0431   -4.0398   -6.4660 H         1 <0>         0.0556
     48 H13         2.4729   -4.0799   -7.2710 H         1 <0>         0.0415
     49 H14         2.9188    0.0160    1.5141 H         1 <0>         0.0851
     50 H15         2.2693   -6.5190   -6.8298 H         1 <0>         0.0639
     51 H16         3.9047   -2.8651    4.0450 H         1 <0>         0.0584
     52 H17         3.2554   -6.0057   -8.9529 H         1 <0>         0.0401
     53 H18         4.8233   -5.6107   -8.2222 H         1 <0>         0.0440
     54 H19         4.2559   -7.2916   -8.2507 H         1 <0>         0.0459
     55 H20         6.0310   -3.1862    4.7353 H         1 <0>         0.0456
     56 H21         6.7293   -2.8350    3.1425 H         1 <0>         0.0366
     57 H22         6.2606   -1.5045    4.2187 H         1 <0>         0.0474
     58 H23         5.4592   -3.1007   -3.4560 H         1 <0>         0.0800
     59 H24         4.3307   -2.2553   -4.5204 H         1 <0>         0.0681
     60 H25         4.1906   -0.3664   -2.8945 H         1 <0>         0.0740
     61 H26         5.3633   -1.1575   -1.8491 H         1 <0>         0.0631
     62 H27         6.6666   -1.9201   -5.2910 H         1 <0>         0.0970
     63 H28         7.0930   -1.2338   -3.7147 H         1 <0>         0.0725
     64 H29         3.7703   -3.1244   -1.5692 H         1 <0>         0.0839
     65 H30         1.9026   -3.5116   -5.0286 H         1 <0>         0.4531
     66 H31         5.4041    2.4285   -5.8100 H         1 <0>         0.4798
     67 H32         7.0268    2.7620   -6.3283 H         1 <0>         0.4881
     68 H33         8.4388   -0.4263   -5.3285 H         1 <0>         0.4801
     69 H34         8.7827    1.1182   -6.0523 H         1 <0>         0.4806
     70 H35         4.9060    0.2597   -4.7858 H         1 <0>         0.4689
     71 H36         1.9407   -1.3323   -3.1385 H         1 <0>         0.4505
     72 H37         0.5099   -2.9556    2.0129 H         1 <0>         0.4443
@<TRIPOS>BOND
     1    1    2 ar
     2    1    3 ar
     3    2    4 ar
     4    3    6 ar
     5    4    5 ar
     6    4   10 1
     7    5    6 ar
     8    5   24 1
     9    6   35 1
    10    7   15 1
    11    7   30 2
    12    7   34 1
    13    8   23 1
    14    8   25 am
    15    8   31 2
    16    9   26 1
    17    9   27 1
    18    9   28 1
    19   10   16 1
    20   11   13 1
    21   11   17 1
    22   12   15 1
    23   12   17 1
    24   13   25 1
    25   14   16 1
    26   14   24 1
    27   15   25 1
    28   16   18 1
    29   17   19 1
    30   20   21 1
    31   20   22 1
    32   21   23 1
    33   22   28 1
    34   23   29 1
    35   29   35 1
    36   32   35 2
    37   33   35 2
    38    1   36 1
    39    2   37 1
    40    3   38 1
    41   10   39 1
    42   10   40 1
    43   11   41 1
    44   11   42 1
    45   12   43 1
    46   12   44 1
    47   13   45 1
    48   13   46 1
    49   14   47 1
    50   14   48 1
    51   15   49 1
    52   16   50 1
    53   17   51 1
    54   18   52 1
    55   18   53 1
    56   18   54 1
    57   19   55 1
    58   19   56 1
    59   19   57 1
    60   20   58 1
    61   20   59 1
    62   21   60 1
    63   21   61 1
    64   22   62 1
    65   22   63 1
    66   23   64 1
    67   24   65 1
    68   26   66 1
    69   26   67 1
    70   27   68 1
    71   27   69 1
    72   28   70 1
    73   29   71 1
    74   34   72 1
@<TRIPOS>MOLECULE
1dwc_ligand_44
   72    74     0     0     0
SMALL
USER_CHARGES

mmff94s_NoEstat = 75.59
@<TRIPOS>ATOM
      1 C1         -1.4167   -4.0969    7.4880 C.ar      1 <0>        -0.1945
      2 C2         -1.3782   -2.9116    8.2194 C.ar      1 <0>        -0.0294
      3 C3         -1.8193   -4.0774    6.1560 C.ar      1 <0>        -0.0143
      4 C4         -1.7393   -1.6967    7.6196 C.ar      1 <0>        -0.1552
      5 C5         -2.1757   -1.6726    6.2800 C.ar      1 <0>         0.3076
      6 C6         -2.1929   -2.8737    5.5561 C.ar      1 <0>        -0.4908
      7 C7          2.9525   -3.7210    4.6633 C.2       1 <0>         0.5994
      8 C8          0.8654   -1.4427    3.2413 C.2       1 <0>         0.6462
      9 C9          0.2237   -3.7376   -2.9912 C.cat     1 <0>         0.6305
     10 C10        -1.6986   -0.4229    8.4294 C.3       1 <0>        -0.0319
     11 C11         3.8997   -0.0663    4.7953 C.3       1 <0>        -0.0918
     12 C12         3.0155   -1.8674    6.2922 C.3       1 <0>        -0.0841
     13 C13         3.1900   -0.7124    3.6122 C.3       1 <0>         0.0870
     14 C14        -2.7014    0.7278    6.4404 C.3       1 <0>         0.2023
     15 C15         2.2314   -2.4635    5.1202 C.3       1 <0>         0.0778
     16 C16        -1.6211    0.8160    7.5233 C.3       1 <0>        -0.0746
     17 C17         4.2756   -1.1130    5.8473 C.3       1 <0>        -0.0681
     18 C18        -1.7676    2.0967    8.3404 C.3       1 <0>        -0.0944
     19 C19         4.9663   -0.4582    7.0420 C.3       1 <0>        -0.0918
     20 C20         0.0249   -2.8727    0.7002 C.3       1 <0>        -0.1192
     21 C21         0.3004   -3.5693    2.0376 C.3       1 <0>        -0.0916
     22 C22         0.2602   -3.7963   -0.4886 C.3       1 <0>         0.1883
     23 C23        -0.0078   -2.6730    3.2260 C.3       1 <0>         0.1952
     24 N1         -2.5388   -0.4838    5.6592 N.pl3     1 <0>        -0.7670
     25 N2          2.0252   -1.5038    4.0223 N.am      1 <0>        -0.4509
     26 N3         -0.0152   -3.0669   -4.1862 N.pl3     1 <0>        -0.8477
     27 N4          0.6744   -5.0526   -3.0302 N.pl3     1 <0>        -0.8633
     28 N5          0.0202   -3.1173   -1.7538 N.pl3     1 <0>        -0.7419
     29 N6         -1.3760   -2.1385    3.1042 N.pl3     1 <0>        -0.8860
     30 O1          3.7741   -3.7699    3.7601 O.2       1 <0>        -0.5199
     31 O2          0.5240   -0.4555    2.5844 O.2       1 <0>        -0.6131
     32 O3         -2.6902   -4.3257    3.4539 O.2       1 <0>        -0.6576
     33 O4         -3.8691   -2.1223    3.7357 O.2       1 <0>        -0.6482
     34 O5          2.5581   -4.7916    5.3952 O.3       1 <0>        -0.6303
     35 S1         -2.6746   -2.9347    3.8647 S.o2      1 <0>         1.5193
     36 H1         -1.1294   -5.0344    7.9561 H         1 <0>         0.1426
     37 H2         -1.0595   -2.9358    9.2588 H         1 <0>         0.1398
     38 H3         -1.8474   -4.9936    5.5747 H         1 <0>         0.1599
     39 H4         -2.6003   -0.3825    9.0536 H         1 <0>         0.0574
     40 H5         -0.8290   -0.4326    9.0980 H         1 <0>         0.0629
     41 H6          4.7987    0.4538    4.4437 H         1 <0>         0.0614
     42 H7          3.2442    0.6909    5.2441 H         1 <0>         0.0593
     43 H8          2.3586   -1.1679    6.8273 H         1 <0>         0.0841
     44 H9          3.2888   -2.6509    7.0104 H         1 <0>         0.0679
     45 H10         2.8945    0.0639    2.8988 H         1 <0>         0.0826
     46 H11         3.8704   -1.3909    3.0835 H         1 <0>         0.0383
     47 H12        -3.7013    0.7380    6.8917 H         1 <0>         0.0556
     48 H13        -2.6389    1.5936    5.7717 H         1 <0>         0.0415
     49 H14         1.2607   -2.8048    5.4936 H         1 <0>         0.0851
     50 H15        -0.6364    0.8362    7.0371 H         1 <0>         0.0639
     51 H16         4.9839   -1.8245    5.4052 H         1 <0>         0.0584
     52 H17        -1.4722    2.9671    7.7470 H         1 <0>         0.0401
     53 H18        -2.8055    2.2330    8.6588 H         1 <0>         0.0440
     54 H19        -1.1357    2.0577    9.2327 H         1 <0>         0.0459
     55 H20         4.4464   -0.7091    7.9715 H         1 <0>         0.0456
     56 H21         6.0020   -0.8015    7.1231 H         1 <0>         0.0366
     57 H22         4.9717    0.6305    6.9335 H         1 <0>         0.0474
     58 H23        -1.0105   -2.5120    0.6824 H         1 <0>         0.0800
     59 H24         0.6776   -1.9980    0.5976 H         1 <0>         0.0681
     60 H25         1.3460   -3.9033    2.0652 H         1 <0>         0.0740
     61 H26        -0.3175   -4.4733    2.1109 H         1 <0>         0.0631
     62 H27        -0.3909   -4.6751   -0.4416 H         1 <0>         0.0970
     63 H28         1.2981   -4.1440   -0.4920 H         1 <0>         0.0725
     64 H29         0.1003   -3.1895    4.1787 H         1 <0>         0.0839
     65 H30        -2.9169   -0.5266    4.7209 H         1 <0>         0.4531
     66 H31        -0.3470   -2.1063   -4.2064 H         1 <0>         0.4798
     67 H32         0.1347   -3.5257   -5.0818 H         1 <0>         0.4881
     68 H33         0.8589   -5.5723   -2.1756 H         1 <0>         0.4801
     69 H34         0.8324   -5.5290   -3.9149 H         1 <0>         0.4806
     70 H35        -0.3110   -2.1514   -1.7574 H         1 <0>         0.4689
     71 H36        -1.4476   -1.1318    2.9219 H         1 <0>         0.4505
     72 H37         3.0115   -5.6147    5.1139 H         1 <0>         0.4443
@<TRIPOS>BOND
     1    1    2 ar
     2    1    3 ar
     3    2    4 ar
     4    3    6 ar
     5    4    5 ar
     6    4   10 1
     7    5    6 ar
     8    5   24 1
     9    6   35 1
    10    7   15 1
    11    7   30 2
    12    7   34 1
    13    8   23 1
    14    8   25 am
    15    8   31 2
    16    9   26 1
    17    9   27 1
    18    9   28 1
    19   10   16 1
    20   11   13 1
    21   11   17 1
    22   12   15 1
    23   12   17 1
    24   13   25 1
    25   14   16 1
    26   14   24 1
    27   15   25 1
    28   16   18 1
    29   17   19 1
    30   20   21 1
    31   20   22 1
    32   21   23 1
    33   22   28 1
    34   23   29 1
    35   29   35 1
    36   32   35 2
    37   33   35 2
    38    1   36 1
    39    2   37 1
    40    3   38 1
    41   10   39 1
    42   10   40 1
    43   11   41 1
    44   11   42 1
    45   12   43 1
    46   12   44 1
    47   13   45 1
    48   13   46 1
    49   14   47 1
    50   14   48 1
    51   15   49 1
    52   16   50 1
    53   17   51 1
    54   18   52 1
    55   18   53 1
    56   18   54 1
    57   19   55 1
    58   19   56 1
    59   19   57 1
    60   20   58 1
    61   20   59 1
    62   21   60 1
    63   21   61 1
    64   22   62 1
    65   22   63 1
    66   23   64 1
    67   24   65 1
    68   26   66 1
    69   26   67 1
    70   27   68 1
    71   27   69 1
    72   28   70 1
    73   29   71 1
    74   34   72 1
@<TRIPOS>MOLECULE
1dwc_ligand_45
   72    74     0     0     0
SMALL
USER_CHARGES

mmff94s_NoEstat = 75.67
@<TRIPOS>ATOM
      1 C1         -3.3475   -6.3503    1.8791 C.ar      1 <0>        -0.1945
      2 C2         -3.9958   -5.9344    0.7180 C.ar      1 <0>        -0.0294
      3 C3         -2.9512   -5.4113    2.8268 C.ar      1 <0>        -0.0143
      4 C4         -4.2554   -4.5738    0.4999 C.ar      1 <0>        -0.1552
      5 C5         -3.8316   -3.6142    1.4408 C.ar      1 <0>         0.3076
      6 C6         -3.1944   -4.0540    2.6102 C.ar      1 <0>        -0.4908
      7 C7          1.8094   -2.2220    6.4146 C.2       1 <0>         0.5994
      8 C8          0.8654   -1.4427    3.2413 C.2       1 <0>         0.6462
      9 C9          1.3456   -6.9412   -0.3642 C.cat     1 <0>         0.6305
     10 C10        -4.9524   -4.1403   -0.7675 C.3       1 <0>        -0.0319
     11 C11         1.3547    1.4153    5.5015 C.3       1 <0>        -0.0918
     12 C12         0.1935   -0.3932    6.7850 C.3       1 <0>        -0.0841
     13 C13         1.9116    0.3681    4.5455 C.3       1 <0>         0.0870
     14 C14        -4.5641   -1.7769   -0.0261 C.3       1 <0>         0.2023
     15 C15         0.6811   -1.4322    5.7719 C.3       1 <0>         0.0778
     16 C16        -5.5921   -2.7519   -0.6095 C.3       1 <0>        -0.0746
     17 C17         1.1262    0.8207    6.8935 C.3       1 <0>        -0.0681
     18 C18        -6.1301   -2.2464   -1.9453 C.3       1 <0>        -0.0944
     19 C19         0.5462    1.8676    7.8426 C.3       1 <0>        -0.0918
     20 C20         1.7689   -4.0083    2.0091 C.3       1 <0>        -0.1192
     21 C21         0.3004   -3.5693    2.0376 C.3       1 <0>        -0.0916
     22 C22         2.0958   -4.8429    0.7769 C.3       1 <0>         0.1883
     23 C23        -0.0078   -2.6730    3.2260 C.3       1 <0>         0.1952
     24 N1         -4.0757   -2.2595    1.2518 N.pl3     1 <0>        -0.7670
     25 N2          1.0754   -0.8353    4.4846 N.am      1 <0>        -0.4509
     26 N3          0.5495   -8.0810   -0.4079 N.pl3     1 <0>        -0.8477
     27 N4          2.2318   -6.6929   -1.4069 N.pl3     1 <0>        -0.8633
     28 N5          1.2730   -6.0418    0.7049 N.pl3     1 <0>        -0.7419
     29 N6         -1.3760   -2.1385    3.1042 N.pl3     1 <0>        -0.8860
     30 O1          2.9993   -1.9718    6.2928 O.2       1 <0>        -0.5199
     31 O2          1.3411   -1.0305    2.1799 O.2       1 <0>        -0.6131
     32 O3         -3.7495   -1.9880    4.0928 O.2       1 <0>        -0.6576
     33 O4         -2.1627   -3.7355    4.9602 O.2       1 <0>        -0.6482
     34 O5          1.3170   -3.2520    7.1454 O.3       1 <0>        -0.6303
     35 S1         -2.6746   -2.9347    3.8647 S.o2      1 <0>         1.5193
     36 H1         -3.1550   -7.4065    2.0458 H         1 <0>         0.1426
     37 H2         -4.3045   -6.6753   -0.0157 H         1 <0>         0.1398
     38 H3         -2.4509   -5.7242    3.7377 H         1 <0>         0.1599
     39 H4         -4.2148   -4.1296   -1.5800 H         1 <0>         0.0574
     40 H5         -5.7315   -4.8656   -1.0323 H         1 <0>         0.0629
     41 H6          2.0492    2.2615    5.5629 H         1 <0>         0.0614
     42 H7          0.4079    1.8038    5.1048 H         1 <0>         0.0593
     43 H8         -0.8003   -0.0449    6.4717 H         1 <0>         0.0841
     44 H9          0.0668   -0.8506    7.7745 H         1 <0>         0.0679
     45 H10         2.0225    0.8091    3.5494 H         1 <0>         0.0826
     46 H11         2.9105    0.0502    4.8680 H         1 <0>         0.0383
     47 H12        -3.7191   -1.6505   -0.7142 H         1 <0>         0.0556
     48 H13        -5.0170   -0.7893    0.1158 H         1 <0>         0.0415
     49 H14        -0.1232   -2.1562    5.6073 H         1 <0>         0.0851
     50 H15        -6.4375   -2.8304    0.0874 H         1 <0>         0.0639
     51 H16         2.0901    0.4983    7.3061 H         1 <0>         0.0584
     52 H17        -6.7909   -1.3877   -1.7933 H         1 <0>         0.0401
     53 H18        -5.3086   -1.9377   -2.5987 H         1 <0>         0.0440
     54 H19        -6.6976   -3.0320   -2.4531 H         1 <0>         0.0459
     55 H20        -0.3870    1.5087    8.2868 H         1 <0>         0.0456
     56 H21         1.2507    2.0862    8.6507 H         1 <0>         0.0366
     57 H22         0.3370    2.7982    7.3067 H         1 <0>         0.0474
     58 H23         2.4156   -3.1229    2.0318 H         1 <0>         0.0800
     59 H24         1.9949   -4.6013    2.9028 H         1 <0>         0.0681
     60 H25        -0.3448   -4.4577    2.0448 H         1 <0>         0.0740
     61 H26         0.0666   -3.0218    1.1158 H         1 <0>         0.0631
     62 H27         3.1472   -5.1474    0.7729 H         1 <0>         0.0970
     63 H28         1.9091   -4.2592   -0.1301 H         1 <0>         0.0725
     64 H29         0.1003   -3.1895    4.1787 H         1 <0>         0.0839
     65 H30        -3.6865   -1.6028    1.9171 H         1 <0>         0.4531
     66 H31        -0.1107   -8.3043    0.3321 H         1 <0>         0.4798
     67 H32         0.6091   -8.7303   -1.1889 H         1 <0>         0.4881
     68 H33         2.8285   -5.8692   -1.4068 H         1 <0>         0.4801
     69 H34         2.3056   -7.3283   -2.1978 H         1 <0>         0.4806
     70 H35         0.6129   -6.2511    1.4553 H         1 <0>         0.4689
     71 H36        -1.4476   -1.1318    2.9219 H         1 <0>         0.4505
     72 H37         2.0308   -3.7759    7.5675 H         1 <0>         0.4443
@<TRIPOS>BOND
     1    1    2 ar
     2    1    3 ar
     3    2    4 ar
     4    3    6 ar
     5    4    5 ar
     6    4   10 1
     7    5    6 ar
     8    5   24 1
     9    6   35 1
    10    7   15 1
    11    7   30 2
    12    7   34 1
    13    8   23 1
    14    8   25 am
    15    8   31 2
    16    9   26 1
    17    9   27 1
    18    9   28 1
    19   10   16 1
    20   11   13 1
    21   11   17 1
    22   12   15 1
    23   12   17 1
    24   13   25 1
    25   14   16 1
    26   14   24 1
    27   15   25 1
    28   16   18 1
    29   17   19 1
    30   20   21 1
    31   20   22 1
    32   21   23 1
    33   22   28 1
    34   23   29 1
    35   29   35 1
    36   32   35 2
    37   33   35 2
    38    1   36 1
    39    2   37 1
    40    3   38 1
    41   10   39 1
    42   10   40 1
    43   11   41 1
    44   11   42 1
    45   12   43 1
    46   12   44 1
    47   13   45 1
    48   13   46 1
    49   14   47 1
    50   14   48 1
    51   15   49 1
    52   16   50 1
    53   17   51 1
    54   18   52 1
    55   18   53 1
    56   18   54 1
    57   19   55 1
    58   19   56 1
    59   19   57 1
    60   20   58 1
    61   20   59 1
    62   21   60 1
    63   21   61 1
    64   22   62 1
    65   22   63 1
    66   23   64 1
    67   24   65 1
    68   26   66 1
    69   26   67 1
    70   27   68 1
    71   27   69 1
    72   28   70 1
    73   29   71 1
    74   34   72 1
@<TRIPOS>MOLECULE
1dwc_ligand_46
   72    74     0     0     0
SMALL
USER_CHARGES

mmff94s_NoEstat = 75.69
@<TRIPOS>ATOM
      1 C1         -1.9965   -5.9212    5.9958 C.ar      1 <0>        -0.1945
      2 C2         -2.1862   -5.2163    7.1826 C.ar      1 <0>        -0.0294
      3 C3         -2.1655   -5.2788    4.7728 C.ar      1 <0>        -0.0143
      4 C4         -2.5430   -3.8606    7.1524 C.ar      1 <0>        -0.1552
      5 C5         -2.7443   -3.2106    5.9185 C.ar      1 <0>         0.3076
      6 C6         -2.5336   -3.9330    4.7351 C.ar      1 <0>        -0.4908
      7 C7          2.0323   -3.0842    5.9821 C.2       1 <0>         0.5994
      8 C8          0.8654   -1.4427    3.2413 C.2       1 <0>         0.6462
      9 C9          2.8571   -3.2799   -1.0245 C.cat     1 <0>         0.6305
     10 C10        -2.7517   -3.1143    8.4484 C.3       1 <0>        -0.0319
     11 C11         3.0911    0.4998    5.4298 C.3       1 <0>        -0.0918
     12 C12         1.5534   -0.8369    6.8842 C.3       1 <0>        -0.0841
     13 C13         2.8818   -0.5022    4.3015 C.3       1 <0>         0.0870
     14 C14        -3.4952   -1.1625    7.0613 C.3       1 <0>         0.2023
     15 C15         1.2754   -1.7924    5.7207 C.3       1 <0>         0.0778
     16 C16        -2.6278   -1.5957    8.2477 C.3       1 <0>        -0.0746
     17 C17         2.9339   -0.1724    6.7962 C.3       1 <0>        -0.0681
     18 C18        -3.0221   -0.8459    9.5173 C.3       1 <0>        -0.0944
     19 C19         3.1216    0.8403    7.9242 C.3       1 <0>        -0.0918
     20 C20         1.7689   -4.0083    2.0091 C.3       1 <0>        -0.1192
     21 C21         0.3004   -3.5693    2.0376 C.3       1 <0>        -0.0916
     22 C22         2.0958   -4.8429    0.7769 C.3       1 <0>         0.1883
     23 C23        -0.0078   -2.6730    3.2260 C.3       1 <0>         0.1952
     24 N1         -3.0973   -1.8681    5.8578 N.pl3     1 <0>        -0.7670
     25 N2          1.5999   -1.2067    4.4091 N.am      1 <0>        -0.4509
     26 N3          2.6214   -2.5784   -2.2023 N.pl3     1 <0>        -0.8477
     27 N4          4.0963   -3.1655   -0.4037 N.pl3     1 <0>        -0.8633
     28 N5          1.8751   -4.0962   -0.4532 N.pl3     1 <0>        -0.7419
     29 N6         -1.3760   -2.1385    3.1042 N.pl3     1 <0>        -0.8860
     30 O1          3.1450   -3.3455    5.5497 O.2       1 <0>        -0.5199
     31 O2          0.8891   -0.7105    2.2483 O.2       1 <0>        -0.6131
     32 O3         -2.5366   -4.2300    2.1492 O.2       1 <0>        -0.6576
     33 O4         -3.9323   -2.4104    3.1814 O.2       1 <0>        -0.6482
     34 O5          1.3022   -3.9170    6.7635 O.3       1 <0>        -0.6303
     35 S1         -2.7118   -3.1932    3.1483 S.o2      1 <0>         1.5193
     36 H1         -1.7136   -6.9698    6.0253 H         1 <0>         0.1426
     37 H2         -2.0492   -5.7255    8.1337 H         1 <0>         0.1398
     38 H3         -2.0145   -5.8162    3.8419 H         1 <0>         0.1599
     39 H4         -3.7469   -3.3674    8.8354 H         1 <0>         0.0574
     40 H5         -2.0117   -3.4391    9.1901 H         1 <0>         0.0629
     41 H6          4.0885    0.9467    5.3426 H         1 <0>         0.0614
     42 H7          2.3630    1.3153    5.3324 H         1 <0>         0.0593
     43 H8          0.7851   -0.0517    6.8776 H         1 <0>         0.0841
     44 H9          1.4567   -1.3607    7.8437 H         1 <0>         0.0679
     45 H10         2.9560    0.0148    3.3392 H         1 <0>         0.0826
     46 H11         3.6704   -1.2643    4.3172 H         1 <0>         0.0383
     47 H12        -4.5547   -1.3611    7.2657 H         1 <0>         0.0556
     48 H13        -3.3943   -0.0847    6.8920 H         1 <0>         0.0415
     49 H14         0.2160   -2.0663    5.7460 H         1 <0>         0.0851
     50 H15        -1.5799   -1.3538    8.0242 H         1 <0>         0.0639
     51 H16         3.7104   -0.9392    6.9078 H         1 <0>         0.0584
     52 H17        -2.7058    0.1999    9.4599 H         1 <0>         0.0401
     53 H18        -4.1069   -0.8706    9.6572 H         1 <0>         0.0440
     54 H19        -2.5511   -1.3005   10.3940 H         1 <0>         0.0459
     55 H20         2.2527    0.8404    8.5891 H         1 <0>         0.0456
     56 H21         4.0086    0.5961    8.5164 H         1 <0>         0.0366
     57 H22         3.2450    1.8489    7.5186 H         1 <0>         0.0474
     58 H23         2.4156   -3.1229    2.0318 H         1 <0>         0.0800
     59 H24         1.9949   -4.6013    2.9028 H         1 <0>         0.0681
     60 H25        -0.3448   -4.4577    2.0448 H         1 <0>         0.0740
     61 H26         0.0666   -3.0218    1.1158 H         1 <0>         0.0631
     62 H27         1.4860   -5.7513    0.7413 H         1 <0>         0.0970
     63 H28         3.1484   -5.1425    0.7970 H         1 <0>         0.0725
     64 H29         0.1003   -3.1895    4.1787 H         1 <0>         0.0839
     65 H30        -3.3042   -1.4652    4.9522 H         1 <0>         0.4531
     66 H31         1.7321   -2.6330   -2.6917 H         1 <0>         0.4798
     67 H32         3.3414   -1.9873   -2.6114 H         1 <0>         0.4881
     68 H33         4.3022   -3.6645    0.4583 H         1 <0>         0.4801
     69 H34         4.8291   -2.5786   -0.7952 H         1 <0>         0.4806
     70 H35         0.9755   -4.1600   -0.9320 H         1 <0>         0.4689
     71 H36        -1.5021   -1.1633    3.3956 H         1 <0>         0.4505
     72 H37         1.7734   -4.7586    6.9424 H         1 <0>         0.4443
@<TRIPOS>BOND
     1    1    2 ar
     2    1    3 ar
     3    2    4 ar
     4    3    6 ar
     5    4    5 ar
     6    4   10 1
     7    5    6 ar
     8    5   24 1
     9    6   35 1
    10    7   15 1
    11    7   30 2
    12    7   34 1
    13    8   23 1
    14    8   25 am
    15    8   31 2
    16    9   26 1
    17    9   27 1
    18    9   28 1
    19   10   16 1
    20   11   13 1
    21   11   17 1
    22   12   15 1
    23   12   17 1
    24   13   25 1
    25   14   16 1
    26   14   24 1
    27   15   25 1
    28   16   18 1
    29   17   19 1
    30   20   21 1
    31   20   22 1
    32   21   23 1
    33   22   28 1
    34   23   29 1
    35   29   35 1
    36   32   35 2
    37   33   35 2
    38    1   36 1
    39    2   37 1
    40    3   38 1
    41   10   39 1
    42   10   40 1
    43   11   41 1
    44   11   42 1
    45   12   43 1
    46   12   44 1
    47   13   45 1
    48   13   46 1
    49   14   47 1
    50   14   48 1
    51   15   49 1
    52   16   50 1
    53   17   51 1
    54   18   52 1
    55   18   53 1
    56   18   54 1
    57   19   55 1
    58   19   56 1
    59   19   57 1
    60   20   58 1
    61   20   59 1
    62   21   60 1
    63   21   61 1
    64   22   62 1
    65   22   63 1
    66   23   64 1
    67   24   65 1
    68   26   66 1
    69   26   67 1
    70   27   68 1
    71   27   69 1
    72   28   70 1
    73   29   71 1
    74   34   72 1
@<TRIPOS>MOLECULE
1dwc_ligand_47
   72    74     0     0     0
SMALL
USER_CHARGES

mmff94s_NoEstat = 75.77
@<TRIPOS>ATOM
      1 C1          0.6009   -5.4402   -0.5450 C.ar      1 <0>        -0.1945
      2 C2          1.9177   -5.1745   -0.9146 C.ar      1 <0>        -0.0294
      3 C3          0.2538   -5.4826    0.8019 C.ar      1 <0>        -0.0143
      4 C4          2.8980   -4.9531    0.0635 C.ar      1 <0>        -0.1552
      5 C5          2.5489   -4.9659    1.4281 C.ar      1 <0>         0.3076
      6 C6          1.2217   -5.2505    1.7807 C.ar      1 <0>        -0.4908
      7 C7         -0.2549    0.4306    0.6330 C.2       1 <0>         0.5994
      8 C8          0.8654   -1.4427    3.2413 C.2       1 <0>         0.6462
      9 C9         -5.3792    0.5120    4.1450 C.cat     1 <0>         0.6305
     10 C10         4.3179   -4.6587   -0.3572 C.3       1 <0>        -0.0319
     11 C11         3.3665   -0.6443    0.6676 C.3       1 <0>        -0.0918
     12 C12         1.2181   -1.2005   -0.4907 C.3       1 <0>        -0.0841
     13 C13         2.5847   -0.2704    1.9206 C.3       1 <0>         0.0870
     14 C14         4.8245   -4.2772    2.0742 C.3       1 <0>         0.2023
     15 C15         0.4427   -0.9096    0.7969 C.3       1 <0>         0.0778
     16 C16         5.3306   -4.9077    0.7723 C.3       1 <0>        -0.0746
     17 C17         2.5288   -0.4088   -0.5919 C.3       1 <0>        -0.0681
     18 C18         5.6414   -6.3991    0.9431 C.3       1 <0>        -0.0944
     19 C19         3.3078   -0.8065   -1.8442 C.3       1 <0>        -0.0918
     20 C20        -2.1115   -1.2711    3.3990 C.3       1 <0>        -0.1192
     21 C21        -1.3133   -2.4479    3.9716 C.3       1 <0>        -0.0916
     22 C22        -3.3821   -0.9970    4.1941 C.3       1 <0>         0.1883
     23 C23        -0.0078   -2.6730    3.2260 C.3       1 <0>         0.1952
     24 N1          3.4999   -4.7575    2.4193 N.pl3     1 <0>        -0.7670
     25 N2          1.2915   -0.9578    1.9994 N.am      1 <0>        -0.4509
     26 N3         -6.0873    1.5705    3.5854 N.pl3     1 <0>        -0.8477
     27 N4         -5.9120   -0.1549    5.2429 N.pl3     1 <0>        -0.8633
     28 N5         -4.1449    0.1056    3.6268 N.pl3     1 <0>        -0.7419
     29 N6          0.7961   -3.6905    3.9267 N.pl3     1 <0>        -0.8860
     30 O1          0.1931    1.5051    1.0045 O.2       1 <0>        -0.5199
     31 O2          1.1650   -0.9321    4.3240 O.2       1 <0>        -0.6131
     32 O3         -0.6876   -5.7475    3.4786 O.2       1 <0>        -0.6576
     33 O4          1.7036   -6.0834    4.1813 O.2       1 <0>        -0.6482
     34 O5         -1.4521    0.2749    0.0168 O.3       1 <0>        -0.6303
     35 S1          0.6998   -5.3249    3.4597 S.o2      1 <0>         1.5193
     36 H1         -0.1532   -5.6173   -1.3071 H         1 <0>         0.1426
     37 H2          2.1805   -5.1462   -1.9695 H         1 <0>         0.1398
     38 H3         -0.7676   -5.6946    1.1020 H         1 <0>         0.1599
     39 H4          4.5872   -5.2635   -1.2316 H         1 <0>         0.0574
     40 H5          4.3648   -3.6041   -0.6574 H         1 <0>         0.0629
     41 H6          4.2893   -0.0541    0.6219 H         1 <0>         0.0614
     42 H7          3.6617   -1.6999    0.7239 H         1 <0>         0.0593
     43 H8          1.4535   -2.2733   -0.5175 H         1 <0>         0.0841
     44 H9          0.5944   -0.9953   -1.3701 H         1 <0>         0.0679
     45 H10         3.1909   -0.4908    2.8053 H         1 <0>         0.0826
     46 H11         2.3782    0.8066    1.9340 H         1 <0>         0.0383
     47 H12         5.5138   -4.4958    2.8973 H         1 <0>         0.0556
     48 H13         4.7892   -3.1861    1.9666 H         1 <0>         0.0415
     49 H14        -0.3616   -1.6465    0.8882 H         1 <0>         0.0851
     50 H15         6.2762   -4.4249    0.4964 H         1 <0>         0.0639
     51 H16         2.2982    0.6607   -0.6719 H         1 <0>         0.0584
     52 H17         4.9808   -7.0038    0.3146 H         1 <0>         0.0401
     53 H18         6.6765   -6.6112    0.6589 H         1 <0>         0.0440
     54 H19         5.5005   -6.7043    1.9843 H         1 <0>         0.0459
     55 H20         2.6382   -1.2449   -2.5902 H         1 <0>         0.0456
     56 H21         3.7937    0.0674   -2.2885 H         1 <0>         0.0366
     57 H22         4.0794   -1.5424   -1.5992 H         1 <0>         0.0474
     58 H23        -1.4838   -0.3719    3.3933 H         1 <0>         0.0800
     59 H24        -2.3885   -1.4831    2.3599 H         1 <0>         0.0681
     60 H25        -1.9335   -3.3536    3.9489 H         1 <0>         0.0740
     61 H26        -1.0849   -2.2531    5.0271 H         1 <0>         0.0631
     62 H27        -3.1519   -0.7547    5.2365 H         1 <0>         0.0970
     63 H28        -4.0259   -1.8823    4.1866 H         1 <0>         0.0725
     64 H29        -0.1638   -2.9774    2.1921 H         1 <0>         0.0839
     65 H30         3.1862   -4.7016    3.3805 H         1 <0>         0.4531
     66 H31        -5.7362    2.0880    2.7841 H         1 <0>         0.4798
     67 H32        -6.9840    1.8599    3.9689 H         1 <0>         0.4881
     68 H33        -5.4209   -0.9328    5.6766 H         1 <0>         0.4801
     69 H34        -6.8078    0.1174    5.6406 H         1 <0>         0.4806
     70 H35        -3.7797    0.6144    2.8203 H         1 <0>         0.4689
     71 H36         1.6533   -3.3509    4.3757 H         1 <0>         0.4505
     72 H37        -1.9197    1.1298   -0.0968 H         1 <0>         0.4443
@<TRIPOS>BOND
     1    1    2 ar
     2    1    3 ar
     3    2    4 ar
     4    3    6 ar
     5    4    5 ar
     6    4   10 1
     7    5    6 ar
     8    5   24 1
     9    6   35 1
    10    7   15 1
    11    7   30 2
    12    7   34 1
    13    8   23 1
    14    8   25 am
    15    8   31 2
    16    9   26 1
    17    9   27 1
    18    9   28 1
    19   10   16 1
    20   11   13 1
    21   11   17 1
    22   12   15 1
    23   12   17 1
    24   13   25 1
    25   14   16 1
    26   14   24 1
    27   15   25 1
    28   16   18 1
    29   17   19 1
    30   20   21 1
    31   20   22 1
    32   21   23 1
    33   22   28 1
    34   23   29 1
    35   29   35 1
    36   32   35 2
    37   33   35 2
    38    1   36 1
    39    2   37 1
    40    3   38 1
    41   10   39 1
    42   10   40 1
    43   11   41 1
    44   11   42 1
    45   12   43 1
    46   12   44 1
    47   13   45 1
    48   13   46 1
    49   14   47 1
    50   14   48 1
    51   15   49 1
    52   16   50 1
    53   17   51 1
    54   18   52 1
    55   18   53 1
    56   18   54 1
    57   19   55 1
    58   19   56 1
    59   19   57 1
    60   20   58 1
    61   20   59 1
    62   21   60 1
    63   21   61 1
    64   22   62 1
    65   22   63 1
    66   23   64 1
    67   24   65 1
    68   26   66 1
    69   26   67 1
    70   27   68 1
    71   27   69 1
    72   28   70 1
    73   29   71 1
    74   34   72 1
@<TRIPOS>MOLECULE
1dwc_ligand_48
   72    74     0     0     0
SMALL
USER_CHARGES

mmff94s_NoEstat = 75.81
@<TRIPOS>ATOM
      1 C1         -2.0732   -6.1389    5.6806 C.ar      1 <0>        -0.1945
      2 C2         -2.6808   -6.9079    4.6902 C.ar      1 <0>        -0.0294
      3 C3         -2.0299   -4.7535    5.5544 C.ar      1 <0>        -0.0143
      4 C4         -3.2534   -6.2935    3.5673 C.ar      1 <0>        -0.1552
      5 C5         -3.1881   -4.8939    3.4179 C.ar      1 <0>         0.3076
      6 C6         -2.5860   -4.1361    4.4328 C.ar      1 <0>        -0.4908
      7 C7          3.5686   -3.4379    3.7704 C.2       1 <0>         0.5994
      8 C8          0.8654   -1.4427    3.2413 C.2       1 <0>         0.6462
      9 C9          2.0746   -5.2044   -1.4852 C.cat     1 <0>         0.6305
     10 C10        -3.9012   -7.1431    2.5003 C.3       1 <0>        -0.0319
     11 C11         3.4440   -0.0674    5.4719 C.3       1 <0>        -0.0918
     12 C12         3.1682   -2.4952    6.0163 C.3       1 <0>        -0.0841
     13 C13         2.9000   -0.3276    4.0730 C.3       1 <0>         0.0870
     14 C14        -4.2059   -5.0337    1.1799 C.3       1 <0>         0.2023
     15 C15         2.5392   -2.7371    4.6417 C.3       1 <0>         0.0778
     16 C16        -4.8855   -6.3235    1.6511 C.3       1 <0>        -0.0746
     17 C17         4.1435   -1.3104    6.0281 C.3       1 <0>        -0.0681
     18 C18        -5.3916   -7.1408    0.4657 C.3       1 <0>        -0.0944
     19 C19         4.6673   -1.0527    7.4396 C.3       1 <0>        -0.0918
     20 C20         0.0249   -2.8727    0.7002 C.3       1 <0>        -0.1192
     21 C21         0.3004   -3.5693    2.0376 C.3       1 <0>        -0.0916
     22 C22         0.2602   -3.7963   -0.4886 C.3       1 <0>         0.1883
     23 C23        -0.0078   -2.6730    3.2260 C.3       1 <0>         0.1952
     24 N1         -3.7473   -4.2576    2.3165 N.pl3     1 <0>        -0.7670
     25 N2          2.0252   -1.5038    4.0223 N.am      1 <0>        -0.4509
     26 N3          3.3877   -5.6631   -1.4955 N.pl3     1 <0>        -0.8477
     27 N4          1.1890   -5.6621   -2.4548 N.pl3     1 <0>        -0.8633
     28 N5          1.6278   -4.2942   -0.5212 N.pl3     1 <0>        -0.7419
     29 N6         -1.3760   -2.1385    3.1042 N.pl3     1 <0>        -0.8860
     30 O1          3.9563   -3.0382    2.6827 O.2       1 <0>        -0.5199
     31 O2          0.5240   -0.4555    2.5844 O.2       1 <0>        -0.6131
     32 O3         -3.7998   -1.8872    3.9383 O.2       1 <0>        -0.6576
     33 O4         -1.9207   -1.9310    5.6091 O.2       1 <0>        -0.6482
     34 O5          4.0020   -4.5770    4.3637 O.3       1 <0>        -0.6303
     35 S1         -2.5018   -2.3799    4.3583 S.o2      1 <0>         1.5193
     36 H1         -1.6372   -6.6199    6.5517 H         1 <0>         0.1426
     37 H2         -2.7127   -7.9895    4.7986 H         1 <0>         0.1398
     38 H3         -1.5647   -4.1439    6.3224 H         1 <0>         0.1599
     39 H4         -3.1097   -7.5632    1.8667 H         1 <0>         0.0574
     40 H5         -4.4383   -7.9798    2.9637 H         1 <0>         0.0629
     41 H6          4.1435    0.7764    5.4419 H         1 <0>         0.0614
     42 H7          2.6191    0.2214    6.1357 H         1 <0>         0.0593
     43 H8          2.3618   -2.2928    6.7345 H         1 <0>         0.0841
     44 H9          3.6813   -3.3988    6.3690 H         1 <0>         0.0679
     45 H10         2.3679    0.5618    3.7197 H         1 <0>         0.0826
     46 H11         3.7232   -0.5081    3.3711 H         1 <0>         0.0383
     47 H12        -3.3535   -5.2630    0.5284 H         1 <0>         0.0556
     48 H13        -4.9071   -4.4281    0.5950 H         1 <0>         0.0415
     49 H14         1.7211   -3.4548    4.7590 H         1 <0>         0.0851
     50 H15        -5.7514   -6.0581    2.2728 H         1 <0>         0.0639
     51 H16         5.0063   -1.5479    5.3937 H         1 <0>         0.0584
     52 H17        -6.2610   -6.6582    0.0093 H         1 <0>         0.0401
     53 H18        -4.6118   -7.2373   -0.2957 H         1 <0>         0.0440
     54 H19        -5.6846   -8.1445    0.7879 H         1 <0>         0.0459
     55 H20         4.2777   -1.8006    8.1367 H         1 <0>         0.0456
     56 H21         5.7602   -1.1000    7.4588 H         1 <0>         0.0366
     57 H22         4.3590   -0.0627    7.7891 H         1 <0>         0.0474
     58 H23        -1.0105   -2.5120    0.6824 H         1 <0>         0.0800
     59 H24         0.6776   -1.9980    0.5976 H         1 <0>         0.0681
     60 H25         1.3460   -3.9033    2.0652 H         1 <0>         0.0740
     61 H26        -0.3175   -4.4733    2.1109 H         1 <0>         0.0631
     62 H27         0.0590   -3.2831   -1.4342 H         1 <0>         0.0970
     63 H28        -0.4054   -4.6631   -0.4257 H         1 <0>         0.0725
     64 H29         0.1003   -3.1895    4.1787 H         1 <0>         0.0839
     65 H30        -3.6095   -3.2595    2.2158 H         1 <0>         0.4531
     66 H31         4.0702   -5.3548   -0.8082 H         1 <0>         0.4798
     67 H32         3.7046   -6.3246   -2.2006 H         1 <0>         0.4881
     68 H33         0.2221   -5.3473   -2.4765 H         1 <0>         0.4801
     69 H34         1.4849   -6.3248   -3.1675 H         1 <0>         0.4806
     70 H35         2.3012   -3.9765    0.1776 H         1 <0>         0.4689
     71 H36        -1.4850   -1.3266    2.4871 H         1 <0>         0.4505
     72 H37         4.6667   -5.0457    3.8153 H         1 <0>         0.4443
@<TRIPOS>BOND
     1    1    2 ar
     2    1    3 ar
     3    2    4 ar
     4    3    6 ar
     5    4    5 ar
     6    4   10 1
     7    5    6 ar
     8    5   24 1
     9    6   35 1
    10    7   15 1
    11    7   30 2
    12    7   34 1
    13    8   23 1
    14    8   25 am
    15    8   31 2
    16    9   26 1
    17    9   27 1
    18    9   28 1
    19   10   16 1
    20   11   13 1
    21   11   17 1
    22   12   15 1
    23   12   17 1
    24   13   25 1
    25   14   16 1
    26   14   24 1
    27   15   25 1
    28   16   18 1
    29   17   19 1
    30   20   21 1
    31   20   22 1
    32   21   23 1
    33   22   28 1
    34   23   29 1
    35   29   35 1
    36   32   35 2
    37   33   35 2
    38    1   36 1
    39    2   37 1
    40    3   38 1
    41   10   39 1
    42   10   40 1
    43   11   41 1
    44   11   42 1
    45   12   43 1
    46   12   44 1
    47   13   45 1
    48   13   46 1
    49   14   47 1
    50   14   48 1
    51   15   49 1
    52   16   50 1
    53   17   51 1
    54   18   52 1
    55   18   53 1
    56   18   54 1
    57   19   55 1
    58   19   56 1
    59   19   57 1
    60   20   58 1
    61   20   59 1
    62   21   60 1
    63   21   61 1
    64   22   62 1
    65   22   63 1
    66   23   64 1
    67   24   65 1
    68   26   66 1
    69   26   67 1
    70   27   68 1
    71   27   69 1
    72   28   70 1
    73   29   71 1
    74   34   72 1
@<TRIPOS>MOLECULE
1dwc_ligand_49
   72    74     0     0     0
SMALL
USER_CHARGES

mmff94s_NoEstat = 75.85
@<TRIPOS>ATOM
      1 C1         -2.9821   -5.2402    6.1755 C.ar      1 <0>        -0.1945
      2 C2         -4.2536   -5.5662    5.7083 C.ar      1 <0>        -0.0294
      3 C3         -2.3862   -4.0437    5.7881 C.ar      1 <0>        -0.0143
      4 C4         -4.9394   -4.6928    4.8521 C.ar      1 <0>        -0.1552
      5 C5         -4.3313   -3.4931    4.4321 C.ar      1 <0>         0.3076
      6 C6         -3.0575   -3.1757    4.9254 C.ar      1 <0>        -0.4908
      7 C7          2.9525   -3.7210    4.6633 C.2       1 <0>         0.5994
      8 C8          0.8654   -1.4427    3.2413 C.2       1 <0>         0.6462
      9 C9         -0.0382   -5.7761   -1.6019 C.cat     1 <0>         0.6305
     10 C10        -6.3137   -5.0656    4.3497 C.3       1 <0>        -0.0319
     11 C11         3.8997   -0.0663    4.7953 C.3       1 <0>        -0.0918
     12 C12         3.0155   -1.8674    6.2922 C.3       1 <0>        -0.0841
     13 C13         3.1900   -0.7124    3.6122 C.3       1 <0>         0.0870
     14 C14        -6.2170   -3.0044    2.9255 C.3       1 <0>         0.2023
     15 C15         2.2314   -2.4635    5.1202 C.3       1 <0>         0.0778
     16 C16        -7.0924   -3.8286    3.8752 C.3       1 <0>        -0.0746
     17 C17         4.2756   -1.1130    5.8473 C.3       1 <0>        -0.0681
     18 C18        -8.3998   -4.2353    3.2009 C.3       1 <0>        -0.0944
     19 C19         4.9663   -0.4582    7.0420 C.3       1 <0>        -0.0918
     20 C20        -0.5404   -4.8511    2.0458 C.3       1 <0>        -0.1192
     21 C21         0.3004   -3.5693    2.0376 C.3       1 <0>        -0.0916
     22 C22        -0.1768   -5.7847    0.8978 C.3       1 <0>         0.1883
     23 C23        -0.0078   -2.6730    3.2260 C.3       1 <0>         0.1952
     24 N1         -4.9870   -2.6082    3.5850 N.pl3     1 <0>        -0.7670
     25 N2          2.0252   -1.5038    4.0223 N.am      1 <0>        -0.4509
     26 N3         -0.2239   -5.1414   -2.8257 N.pl3     1 <0>        -0.8477
     27 N4          0.4773   -7.0675   -1.5794 N.pl3     1 <0>        -0.8633
     28 N5         -0.3589   -5.1430   -0.3963 N.pl3     1 <0>        -0.7419
     29 N6         -1.3760   -2.1385    3.1042 N.pl3     1 <0>        -0.8860
     30 O1          3.7741   -3.7699    3.7601 O.2       1 <0>        -0.5199
     31 O2          0.5240   -0.4555    2.5844 O.2       1 <0>        -0.6131
     32 O3         -3.2514   -0.7039    4.1330 O.2       1 <0>        -0.6576
     33 O4         -1.2997   -1.3890    5.5632 O.2       1 <0>        -0.6482
     34 O5          2.5581   -4.7916    5.3952 O.3       1 <0>        -0.6303
     35 S1         -2.2397   -1.6774    4.4970 S.o2      1 <0>         1.5193
     36 H1         -2.4581   -5.9177    6.8441 H         1 <0>         0.1426
     37 H2         -4.7127   -6.5018    6.0186 H         1 <0>         0.1398
     38 H3         -1.3986   -3.7764    6.1505 H         1 <0>         0.1599
     39 H4         -6.1970   -5.7813    3.5259 H         1 <0>         0.0574
     40 H5         -6.8810   -5.5622    5.1465 H         1 <0>         0.0629
     41 H6          4.7987    0.4538    4.4437 H         1 <0>         0.0614
     42 H7          3.2442    0.6909    5.2441 H         1 <0>         0.0593
     43 H8          2.3586   -1.1679    6.8273 H         1 <0>         0.0841
     44 H9          3.2888   -2.6509    7.0104 H         1 <0>         0.0679
     45 H10         2.8945    0.0639    2.8988 H         1 <0>         0.0826
     46 H11         3.8704   -1.3909    3.0835 H         1 <0>         0.0383
     47 H12        -5.9766   -3.5818    2.0242 H         1 <0>         0.0556
     48 H13        -6.7526   -2.1053    2.6011 H         1 <0>         0.0415
     49 H14         1.2607   -2.8048    5.4936 H         1 <0>         0.0851
     50 H15        -7.3408   -3.2116    4.7494 H         1 <0>         0.0639
     51 H16         4.9839   -1.8245    5.4052 H         1 <0>         0.0584
     52 H17        -9.0584   -3.3693    3.0856 H         1 <0>         0.0401
     53 H18        -8.2066   -4.6557    2.2094 H         1 <0>         0.0440
     54 H19        -8.9224   -4.9882    3.7985 H         1 <0>         0.0459
     55 H20         4.4464   -0.7091    7.9715 H         1 <0>         0.0456
     56 H21         6.0020   -0.8015    7.1231 H         1 <0>         0.0366
     57 H22         4.9717    0.6305    6.9335 H         1 <0>         0.0474
     58 H23        -0.4002   -5.3741    2.9994 H         1 <0>         0.0800
     59 H24        -1.6035   -4.5964    1.9658 H         1 <0>         0.0681
     60 H25         0.1357   -3.0322    1.0943 H         1 <0>         0.0740
     61 H26         1.3654   -3.8328    2.0643 H         1 <0>         0.0631
     62 H27        -0.7862   -6.6937    0.9190 H         1 <0>         0.0970
     63 H28         0.8744   -6.0800    0.9749 H         1 <0>         0.0725
     64 H29         0.1003   -3.1895    4.1787 H         1 <0>         0.0839
     65 H30        -4.4812   -1.7970    3.2511 H         1 <0>         0.4531
     66 H31        -0.5995   -4.1991   -2.8910 H         1 <0>         0.4798
     67 H32         0.0114   -5.6094   -3.6979 H         1 <0>         0.4881
     68 H33         0.6256   -7.5607   -0.7023 H         1 <0>         0.4801
     69 H34         0.7207   -7.5524   -2.4398 H         1 <0>         0.4806
     70 H35        -0.7354   -4.1951   -0.4451 H         1 <0>         0.4689
     71 H36        -1.6042   -1.6955    2.2078 H         1 <0>         0.4505
     72 H37         3.0115   -5.6147    5.1139 H         1 <0>         0.4443
@<TRIPOS>BOND
     1    1    2 ar
     2    1    3 ar
     3    2    4 ar
     4    3    6 ar
     5    4    5 ar
     6    4   10 1
     7    5    6 ar
     8    5   24 1
     9    6   35 1
    10    7   15 1
    11    7   30 2
    12    7   34 1
    13    8   23 1
    14    8   25 am
    15    8   31 2
    16    9   26 1
    17    9   27 1
    18    9   28 1
    19   10   16 1
    20   11   13 1
    21   11   17 1
    22   12   15 1
    23   12   17 1
    24   13   25 1
    25   14   16 1
    26   14   24 1
    27   15   25 1
    28   16   18 1
    29   17   19 1
    30   20   21 1
    31   20   22 1
    32   21   23 1
    33   22   28 1
    34   23   29 1
    35   29   35 1
    36   32   35 2
    37   33   35 2
    38    1   36 1
    39    2   37 1
    40    3   38 1
    41   10   39 1
    42   10   40 1
    43   11   41 1
    44   11   42 1
    45   12   43 1
    46   12   44 1
    47   13   45 1
    48   13   46 1
    49   14   47 1
    50   14   48 1
    51   15   49 1
    52   16   50 1
    53   17   51 1
    54   18   52 1
    55   18   53 1
    56   18   54 1
    57   19   55 1
    58   19   56 1
    59   19   57 1
    60   20   58 1
    61   20   59 1
    62   21   60 1
    63   21   61 1
    64   22   62 1
    65   22   63 1
    66   23   64 1
    67   24   65 1
    68   26   66 1
    69   26   67 1
    70   27   68 1
    71   27   69 1
    72   28   70 1
    73   29   71 1
    74   34   72 1
@<TRIPOS>MOLECULE
1dwc_ligand_50
   72    74     0     0     0
SMALL
USER_CHARGES

mmff94s_NoEstat = 75.94
@<TRIPOS>ATOM
      1 C1         -1.3760   -0.0831    7.4437 C.ar      1 <0>        -0.1945
      2 C2         -1.7166    1.2052    7.0370 C.ar      1 <0>        -0.0294
      3 C3         -1.6287   -1.1649    6.6053 C.ar      1 <0>        -0.0143
      4 C4         -2.3098    1.4195    5.7846 C.ar      1 <0>        -0.1552
      5 C5         -2.5954    0.3267    4.9421 C.ar      1 <0>         0.3076
      6 C6         -2.2310   -0.9605    5.3628 C.ar      1 <0>        -0.4908
      7 C7          2.9525   -3.7210    4.6633 C.2       1 <0>         0.5994
      8 C8          0.8654   -1.4427    3.2413 C.2       1 <0>         0.6462
      9 C9         -0.0382   -5.7761   -1.6019 C.cat     1 <0>         0.6305
     10 C10        -2.6790    2.8217    5.3633 C.3       1 <0>        -0.0319
     11 C11         3.8997   -0.0663    4.7953 C.3       1 <0>        -0.0918
     12 C12         3.0155   -1.8674    6.2922 C.3       1 <0>        -0.0841
     13 C13         3.1900   -0.7124    3.6122 C.3       1 <0>         0.0870
     14 C14        -3.7276    1.8014    3.3273 C.3       1 <0>         0.2023
     15 C15         2.2314   -2.4635    5.1202 C.3       1 <0>         0.0778
     16 C16        -2.8246    2.9293    3.8373 C.3       1 <0>        -0.0746
     17 C17         4.2756   -1.1130    5.8473 C.3       1 <0>        -0.0681
     18 C18        -3.3763    4.2954    3.4390 C.3       1 <0>        -0.0944
     19 C19         4.9663   -0.4582    7.0420 C.3       1 <0>        -0.0918
     20 C20        -0.5404   -4.8511    2.0458 C.3       1 <0>        -0.1192
     21 C21         0.3004   -3.5693    2.0376 C.3       1 <0>        -0.0916
     22 C22        -0.1768   -5.7847    0.8978 C.3       1 <0>         0.1883
     23 C23        -0.0078   -2.6730    3.2260 C.3       1 <0>         0.1952
     24 N1         -3.1817    0.5088    3.6957 N.pl3     1 <0>        -0.7670
     25 N2          2.0252   -1.5038    4.0223 N.am      1 <0>        -0.4509
     26 N3         -0.2239   -5.1414   -2.8257 N.pl3     1 <0>        -0.8477
     27 N4          0.4773   -7.0675   -1.5794 N.pl3     1 <0>        -0.8633
     28 N5         -0.3589   -5.1430   -0.3963 N.pl3     1 <0>        -0.7419
     29 N6         -1.3760   -2.1385    3.1042 N.pl3     1 <0>        -0.8860
     30 O1          3.7741   -3.7699    3.7601 O.2       1 <0>        -0.5199
     31 O2          0.5240   -0.4555    2.5844 O.2       1 <0>        -0.6131
     32 O3         -2.1204   -3.5503    5.1256 O.2       1 <0>        -0.6576
     33 O4         -3.8433   -2.2664    3.8188 O.2       1 <0>        -0.6482
     34 O5          2.5581   -4.7916    5.3952 O.3       1 <0>        -0.6303
     35 S1         -2.5018   -2.3799    4.3583 S.o2      1 <0>         1.5193
     36 H1         -0.9105   -0.2425    8.4124 H         1 <0>         0.1426
     37 H2         -1.5128    2.0448    7.6973 H         1 <0>         0.1398
     38 H3         -1.3622   -2.1723    6.9089 H         1 <0>         0.1599
     39 H4         -3.6215    3.0926    5.8559 H         1 <0>         0.0574
     40 H5         -1.9103    3.5280    5.7005 H         1 <0>         0.0629
     41 H6          4.7987    0.4538    4.4437 H         1 <0>         0.0614
     42 H7          3.2442    0.6909    5.2441 H         1 <0>         0.0593
     43 H8          2.3586   -1.1679    6.8273 H         1 <0>         0.0841
     44 H9          3.2888   -2.6509    7.0104 H         1 <0>         0.0679
     45 H10         2.8945    0.0639    2.8988 H         1 <0>         0.0826
     46 H11         3.8704   -1.3909    3.0835 H         1 <0>         0.0383
     47 H12        -4.7388    1.9004    3.7412 H         1 <0>         0.0556
     48 H13        -3.8175    1.8521    2.2365 H         1 <0>         0.0415
     49 H14         1.2607   -2.8048    5.4936 H         1 <0>         0.0851
     50 H15        -1.8320    2.8194    3.3797 H         1 <0>         0.0639
     51 H16         4.9839   -1.8245    5.4052 H         1 <0>         0.0584
     52 H17        -3.2514    4.4622    2.3649 H         1 <0>         0.0401
     53 H18        -4.4422    4.3638    3.6766 H         1 <0>         0.0440
     54 H19        -2.8521    5.0926    3.9745 H         1 <0>         0.0459
     55 H20         4.4464   -0.7091    7.9715 H         1 <0>         0.0456
     56 H21         6.0020   -0.8015    7.1231 H         1 <0>         0.0366
     57 H22         4.9717    0.6305    6.9335 H         1 <0>         0.0474
     58 H23        -0.4002   -5.3741    2.9994 H         1 <0>         0.0800
     59 H24        -1.6035   -4.5964    1.9658 H         1 <0>         0.0681
     60 H25         0.1357   -3.0322    1.0943 H         1 <0>         0.0740
     61 H26         1.3654   -3.8328    2.0643 H         1 <0>         0.0631
     62 H27        -0.7862   -6.6937    0.9190 H         1 <0>         0.0970
     63 H28         0.8744   -6.0800    0.9749 H         1 <0>         0.0725
     64 H29         0.1003   -3.1895    4.1787 H         1 <0>         0.0839
     65 H30        -3.4363   -0.3112    3.1590 H         1 <0>         0.4531
     66 H31        -0.5995   -4.1991   -2.8910 H         1 <0>         0.4798
     67 H32         0.0114   -5.6094   -3.6979 H         1 <0>         0.4881
     68 H33         0.6256   -7.5607   -0.7023 H         1 <0>         0.4801
     69 H34         0.7207   -7.5524   -2.4398 H         1 <0>         0.4806
     70 H35        -0.7354   -4.1951   -0.4451 H         1 <0>         0.4689
     71 H36        -1.4850   -1.3266    2.4871 H         1 <0>         0.4505
     72 H37         3.0115   -5.6147    5.1139 H         1 <0>         0.4443
@<TRIPOS>BOND
     1    1    2 ar
     2    1    3 ar
     3    2    4 ar
     4    3    6 ar
     5    4    5 ar
     6    4   10 1
     7    5    6 ar
     8    5   24 1
     9    6   35 1
    10    7   15 1
    11    7   30 2
    12    7   34 1
    13    8   23 1
    14    8   25 am
    15    8   31 2
    16    9   26 1
    17    9   27 1
    18    9   28 1
    19   10   16 1
    20   11   13 1
    21   11   17 1
    22   12   15 1
    23   12   17 1
    24   13   25 1
    25   14   16 1
    26   14   24 1
    27   15   25 1
    28   16   18 1
    29   17   19 1
    30   20   21 1
    31   20   22 1
    32   21   23 1
    33   22   28 1
    34   23   29 1
    35   29   35 1
    36   32   35 2
    37   33   35 2
    38    1   36 1
    39    2   37 1
    40    3   38 1
    41   10   39 1
    42   10   40 1
    43   11   41 1
    44   11   42 1
    45   12   43 1
    46   12   44 1
    47   13   45 1
    48   13   46 1
    49   14   47 1
    50   14   48 1
    51   15   49 1
    52   16   50 1
    53   17   51 1
    54   18   52 1
    55   18   53 1
    56   18   54 1
    57   19   55 1
    58   19   56 1
    59   19   57 1
    60   20   58 1
    61   20   59 1
    62   21   60 1
    63   21   61 1
    64   22   62 1
    65   22   63 1
    66   23   64 1
    67   24   65 1
    68   26   66 1
    69   26   67 1
    70   27   68 1
    71   27   69 1
    72   28   70 1
    73   29   71 1
    74   34   72 1
@<TRIPOS>MOLECULE
1dwc_ligand_51
   72    74     0     0     0
SMALL
USER_CHARGES

mmff94s_NoEstat = 76.00
@<TRIPOS>ATOM
      1 C1         -2.2710   -1.6623    7.6435 C.ar      1 <0>        -0.1945
      2 C2         -1.5255   -2.6695    8.2527 C.ar      1 <0>        -0.0294
      3 C3         -2.6085   -1.7664    6.2973 C.ar      1 <0>        -0.0143
      4 C4         -1.1160   -3.7912    7.5176 C.ar      1 <0>        -0.1552
      5 C5         -1.4288   -3.8903    6.1472 C.ar      1 <0>         0.3076
      6 C6         -2.1929   -2.8737    5.5561 C.ar      1 <0>        -0.4908
      7 C7          3.5686   -3.4379    3.7704 C.2       1 <0>         0.5994
      8 C8          0.8654   -1.4427    3.2413 C.2       1 <0>         0.6462
      9 C9          2.0746   -5.2044   -1.4852 C.cat     1 <0>         0.6305
     10 C10        -0.3024   -4.8697    8.1922 C.3       1 <0>        -0.0319
     11 C11         3.4440   -0.0674    5.4719 C.3       1 <0>        -0.0918
     12 C12         3.1682   -2.4952    6.0163 C.3       1 <0>        -0.0841
     13 C13         2.9000   -0.3276    4.0730 C.3       1 <0>         0.0870
     14 C14        -0.0979   -5.9519    5.9398 C.3       1 <0>         0.2023
     15 C15         2.5392   -2.7371    4.6417 C.3       1 <0>         0.0778
     16 C16        -0.3856   -6.1984    7.4244 C.3       1 <0>        -0.0746
     17 C17         4.1435   -1.3104    6.0281 C.3       1 <0>        -0.0681
     18 C18         0.5827   -7.2241    8.0072 C.3       1 <0>        -0.0944
     19 C19         4.6673   -1.0527    7.4396 C.3       1 <0>        -0.0918
     20 C20         0.0249   -2.8727    0.7002 C.3       1 <0>        -0.1192
     21 C21         0.3004   -3.5693    2.0376 C.3       1 <0>        -0.0916
     22 C22         0.2602   -3.7963   -0.4886 C.3       1 <0>         0.1883
     23 C23        -0.0078   -2.6730    3.2260 C.3       1 <0>         0.1952
     24 N1         -1.0371   -4.9903    5.3941 N.pl3     1 <0>        -0.7670
     25 N2          2.0252   -1.5038    4.0223 N.am      1 <0>        -0.4509
     26 N3          3.3877   -5.6631   -1.4955 N.pl3     1 <0>        -0.8477
     27 N4          1.1890   -5.6621   -2.4548 N.pl3     1 <0>        -0.8633
     28 N5          1.6278   -4.2942   -0.5212 N.pl3     1 <0>        -0.7419
     29 N6         -1.3760   -2.1385    3.1042 N.pl3     1 <0>        -0.8860
     30 O1          4.3335   -2.8779    2.9993 O.2       1 <0>        -0.5199
     31 O2          0.5240   -0.4555    2.5844 O.2       1 <0>        -0.6131
     32 O3         -2.6902   -4.3257    3.4539 O.2       1 <0>        -0.6576
     33 O4         -3.8691   -2.1223    3.7357 O.2       1 <0>        -0.6482
     34 O5          3.5241   -4.7791    3.9616 O.3       1 <0>        -0.6303
     35 S1         -2.6746   -2.9347    3.8647 S.o2      1 <0>         1.5193
     36 H1         -2.5913   -0.7986    8.2197 H         1 <0>         0.1426
     37 H2         -1.2690   -2.5812    9.3057 H         1 <0>         0.1398
     38 H3         -3.1940   -0.9909    5.8138 H         1 <0>         0.1599
     39 H4          0.7390   -4.5290    8.2522 H         1 <0>         0.0574
     40 H5         -0.6633   -5.0246    9.2164 H         1 <0>         0.0629
     41 H6          4.1435    0.7764    5.4419 H         1 <0>         0.0614
     42 H7          2.6191    0.2214    6.1357 H         1 <0>         0.0593
     43 H8          2.3618   -2.2928    6.7345 H         1 <0>         0.0841
     44 H9          3.6813   -3.3988    6.3690 H         1 <0>         0.0679
     45 H10         2.3679    0.5618    3.7197 H         1 <0>         0.0826
     46 H11         3.7232   -0.5081    3.3711 H         1 <0>         0.0383
     47 H12         0.9249   -5.5797    5.8021 H         1 <0>         0.0556
     48 H13        -0.1803   -6.8886    5.3775 H         1 <0>         0.0415
     49 H14         1.7211   -3.4548    4.7590 H         1 <0>         0.0851
     50 H15        -1.4032   -6.5999    7.5237 H         1 <0>         0.0639
     51 H16         5.0063   -1.5479    5.3937 H         1 <0>         0.0584
     52 H17         0.3544   -8.2256    7.6305 H         1 <0>         0.0401
     53 H18         1.6132   -6.9794    7.7327 H         1 <0>         0.0440
     54 H19         0.5120   -7.2425    9.0989 H         1 <0>         0.0459
     55 H20         4.2777   -1.8006    8.1367 H         1 <0>         0.0456
     56 H21         5.7602   -1.1000    7.4588 H         1 <0>         0.0366
     57 H22         4.3590   -0.0627    7.7891 H         1 <0>         0.0474
     58 H23        -1.0105   -2.5120    0.6824 H         1 <0>         0.0800
     59 H24         0.6776   -1.9980    0.5976 H         1 <0>         0.0681
     60 H25         1.3460   -3.9033    2.0652 H         1 <0>         0.0740
     61 H26        -0.3175   -4.4733    2.1109 H         1 <0>         0.0631
     62 H27         0.0590   -3.2831   -1.4342 H         1 <0>         0.0970
     63 H28        -0.4054   -4.6631   -0.4257 H         1 <0>         0.0725
     64 H29         0.1003   -3.1895    4.1787 H         1 <0>         0.0839
     65 H30        -1.2193   -4.9813    4.3981 H         1 <0>         0.4531
     66 H31         4.0702   -5.3548   -0.8082 H         1 <0>         0.4798
     67 H32         3.7046   -6.3246   -2.2006 H         1 <0>         0.4881
     68 H33         0.2221   -5.3473   -2.4765 H         1 <0>         0.4801
     69 H34         1.4849   -6.3248   -3.1675 H         1 <0>         0.4806
     70 H35         2.3012   -3.9765    0.1776 H         1 <0>         0.4689
     71 H36        -1.4476   -1.1318    2.9219 H         1 <0>         0.4505
     72 H37         4.1809   -5.2504    3.4059 H         1 <0>         0.4443
@<TRIPOS>BOND
     1    1    2 ar
     2    1    3 ar
     3    2    4 ar
     4    3    6 ar
     5    4    5 ar
     6    4   10 1
     7    5    6 ar
     8    5   24 1
     9    6   35 1
    10    7   15 1
    11    7   30 2
    12    7   34 1
    13    8   23 1
    14    8   25 am
    15    8   31 2
    16    9   26 1
    17    9   27 1
    18    9   28 1
    19   10   16 1
    20   11   13 1
    21   11   17 1
    22   12   15 1
    23   12   17 1
    24   13   25 1
    25   14   16 1
    26   14   24 1
    27   15   25 1
    28   16   18 1
    29   17   19 1
    30   20   21 1
    31   20   22 1
    32   21   23 1
    33   22   28 1
    34   23   29 1
    35   29   35 1
    36   32   35 2
    37   33   35 2
    38    1   36 1
    39    2   37 1
    40    3   38 1
    41   10   39 1
    42   10   40 1
    43   11   41 1
    44   11   42 1
    45   12   43 1
    46   12   44 1
    47   13   45 1
    48   13   46 1
    49   14   47 1
    50   14   48 1
    51   15   49 1
    52   16   50 1
    53   17   51 1
    54   18   52 1
    55   18   53 1
    56   18   54 1
    57   19   55 1
    58   19   56 1
    59   19   57 1
    60   20   58 1
    61   20   59 1
    62   21   60 1
    63   21   61 1
    64   22   62 1
    65   22   63 1
    66   23   64 1
    67   24   65 1
    68   26   66 1
    69   26   67 1
    70   27   68 1
    71   27   69 1
    72   28   70 1
    73   29   71 1
    74   34   72 1
@<TRIPOS>MOLECULE
1dwc_ligand_52
   72    74     0     0     0
SMALL
USER_CHARGES

mmff94s_NoEstat = 76.01
@<TRIPOS>ATOM
      1 C1          6.5406    1.4245   -2.2182 C.ar      1 <0>        -0.1945
      2 C2          6.6985    1.8302   -0.8947 C.ar      1 <0>        -0.0294
      3 C3          6.3835    0.0742   -2.5155 C.ar      1 <0>        -0.0143
      4 C4          6.7040    0.8848    0.1410 C.ar      1 <0>        -0.1552
      5 C5          6.5167   -0.4809   -0.1490 C.ar      1 <0>         0.3076
      6 C6          6.3751   -0.8712   -1.4886 C.ar      1 <0>        -0.4908
      7 C7          1.7669    0.8662    1.3280 C.2       1 <0>         0.5994
      8 C8          2.9466   -1.3973   -0.6457 C.2       1 <0>         0.6462
      9 C9          0.3678   -6.6076   -3.6872 C.cat     1 <0>         0.6305
     10 C10         6.8681    1.3449    1.5697 C.3       1 <0>        -0.0319
     11 C11         2.6473    2.2406   -1.5596 C.3       1 <0>        -0.0918
     12 C12         0.4142    1.3633   -0.6780 C.3       1 <0>        -0.0841
     13 C13         2.8059    0.7734   -1.9437 C.3       1 <0>         0.0870
     14 C14         6.4788   -1.0425    2.2496 C.3       1 <0>         0.2023
     15 C15         1.2880    0.3092   -0.0025 C.3       1 <0>         0.0778
     16 C16         7.3211    0.2120    2.5051 C.3       1 <0>        -0.0746
     17 C17         1.2097    2.5950   -1.1463 C.3       1 <0>        -0.0681
     18 C18         8.8220   -0.0713    2.3751 C.3       1 <0>        -0.0944
     19 C19         0.4640    3.3062   -2.2768 C.3       1 <0>        -0.0918
     20 C20         2.8965   -3.7759   -3.7050 C.3       1 <0>        -0.1192
     21 C21         2.4114   -3.0756   -2.4306 C.3       1 <0>        -0.0916
     22 C22         1.8232   -4.6695   -4.3142 C.3       1 <0>         0.1883
     23 C23         3.4544   -2.1251   -1.8653 C.3       1 <0>         0.1952
     24 N1          6.5251   -1.4407    0.8554 N.pl3     1 <0>        -0.7670
     25 N2          2.3949   -0.1309   -0.8598 N.am      1 <0>        -0.4509
     26 N3         -0.0297   -7.5831   -2.7787 N.pl3     1 <0>        -0.8477
     27 N4         -0.2625   -6.5368   -4.9248 N.pl3     1 <0>        -0.8633
     28 N5          1.3862   -5.6985   -3.3816 N.pl3     1 <0>        -0.7419
     29 N6          4.6097   -2.8934   -1.3678 N.pl3     1 <0>        -0.8860
     30 O1          1.0388    1.2682    2.2234 O.2       1 <0>        -0.5199
     31 O2          3.0377   -1.9312    0.4627 O.2       1 <0>        -0.6131
     32 O3          6.1698   -2.6265   -3.3996 O.2       1 <0>        -0.6576
     33 O4          7.1388   -3.3235   -1.1861 O.2       1 <0>        -0.6482
     34 O5          3.1209    0.8607    1.3898 O.3       1 <0>        -0.6303
     35 S1          6.1736   -2.5573   -1.9508 S.o2      1 <0>         1.5193
     36 H1          6.5435    2.1609   -3.0173 H         1 <0>         0.1426
     37 H2          6.8235    2.8872   -0.6719 H         1 <0>         0.1398
     38 H3          6.2656   -0.2543   -3.5434 H         1 <0>         0.1599
     39 H4          7.5861    2.1725    1.6211 H         1 <0>         0.0574
     40 H5          5.8975    1.7275    1.9104 H         1 <0>         0.0629
     41 H6          3.3139    2.4482   -0.7119 H         1 <0>         0.0614
     42 H7          2.9866    2.8831   -2.3805 H         1 <0>         0.0593
     43 H8         -0.0763    0.8986   -1.5445 H         1 <0>         0.0841
     44 H9         -0.3910    1.6884   -0.0067 H         1 <0>         0.0679
     45 H10         2.1887    0.5331   -2.8174 H         1 <0>         0.0826
     46 H11         3.8474    0.5746   -2.2145 H         1 <0>         0.0383
     47 H12         6.8300   -1.8717    2.8739 H         1 <0>         0.0556
     48 H13         5.4356   -0.8502    2.5290 H         1 <0>         0.0415
     49 H14         0.6719   -0.5636    0.2451 H         1 <0>         0.0851
     50 H15         7.1566    0.5367    3.5400 H         1 <0>         0.0639
     51 H16         1.2711    3.3100   -0.3159 H         1 <0>         0.0584
     52 H17         9.2504    0.4995    1.5459 H         1 <0>         0.0401
     53 H18         9.3470    0.2082    3.2934 H         1 <0>         0.0440
     54 H19         8.9975   -1.1349    2.1879 H         1 <0>         0.0459
     55 H20         0.7912    4.3471   -2.3578 H         1 <0>         0.0456
     56 H21         0.6528    2.8103   -3.2336 H         1 <0>         0.0366
     57 H22        -0.6142    3.2977   -2.0910 H         1 <0>         0.0474
     58 H23         3.2051   -3.0234   -4.4407 H         1 <0>         0.0800
     59 H24         3.7751   -4.3904   -3.4776 H         1 <0>         0.0681
     60 H25         2.1309   -3.8309   -1.6847 H         1 <0>         0.0740
     61 H26         1.5011   -2.5046   -2.6534 H         1 <0>         0.0631
     62 H27         2.1863   -5.1610   -5.2224 H         1 <0>         0.0970
     63 H28         0.9460   -4.0714   -4.5808 H         1 <0>         0.0725
     64 H29         3.7902   -1.3903   -2.5956 H         1 <0>         0.0839
     65 H30         6.3115   -2.3985    0.6051 H         1 <0>         0.4531
     66 H31         0.4035   -7.6739   -1.8636 H         1 <0>         0.4798
     67 H32        -0.7709   -8.2408   -3.0092 H         1 <0>         0.4881
     68 H33         0.0033   -5.8361   -5.6125 H         1 <0>         0.4801
     69 H34        -1.0069   -7.1835   -5.1744 H         1 <0>         0.4806
     70 H35         1.8300   -5.7754   -2.4652 H         1 <0>         0.4689
     71 H36         4.5044   -3.3037   -0.4338 H         1 <0>         0.4505
     72 H37         3.4503    1.2188    2.2416 H         1 <0>         0.4443
@<TRIPOS>BOND
     1    1    2 ar
     2    1    3 ar
     3    2    4 ar
     4    3    6 ar
     5    4    5 ar
     6    4   10 1
     7    5    6 ar
     8    5   24 1
     9    6   35 1
    10    7   15 1
    11    7   30 2
    12    7   34 1
    13    8   23 1
    14    8   25 am
    15    8   31 2
    16    9   26 1
    17    9   27 1
    18    9   28 1
    19   10   16 1
    20   11   13 1
    21   11   17 1
    22   12   15 1
    23   12   17 1
    24   13   25 1
    25   14   16 1
    26   14   24 1
    27   15   25 1
    28   16   18 1
    29   17   19 1
    30   20   21 1
    31   20   22 1
    32   21   23 1
    33   22   28 1
    34   23   29 1
    35   29   35 1
    36   32   35 2
    37   33   35 2
    38    1   36 1
    39    2   37 1
    40    3   38 1
    41   10   39 1
    42   10   40 1
    43   11   41 1
    44   11   42 1
    45   12   43 1
    46   12   44 1
    47   13   45 1
    48   13   46 1
    49   14   47 1
    50   14   48 1
    51   15   49 1
    52   16   50 1
    53   17   51 1
    54   18   52 1
    55   18   53 1
    56   18   54 1
    57   19   55 1
    58   19   56 1
    59   19   57 1
    60   20   58 1
    61   20   59 1
    62   21   60 1
    63   21   61 1
    64   22   62 1
    65   22   63 1
    66   23   64 1
    67   24   65 1
    68   26   66 1
    69   26   67 1
    70   27   68 1
    71   27   69 1
    72   28   70 1
    73   29   71 1
    74   34   72 1
@<TRIPOS>MOLECULE
1dwc_ligand_53
   72    74     0     0     0
SMALL
USER_CHARGES

mmff94s_NoEstat = 76.04
@<TRIPOS>ATOM
      1 C1         -1.8811   -7.3955    2.4466 C.ar      1 <0>        -0.1945
      2 C2         -2.1524   -7.9421    3.6991 C.ar      1 <0>        -0.0294
      3 C3         -0.8111   -6.5198    2.2891 C.ar      1 <0>        -0.0143
      4 C4         -1.3553   -7.6120    4.8047 C.ar      1 <0>        -0.1552
      5 C5         -0.2531   -6.7489    4.6476 C.ar      1 <0>         0.3076
      6 C6         -0.0057   -6.1967    3.3824 C.ar      1 <0>        -0.4908
      7 C7         -1.4628    0.1636    1.3526 C.2       1 <0>         0.5994
      8 C8          0.8654   -1.4427    3.2413 C.2       1 <0>         0.6462
      9 C9         -4.4066   -3.3472    6.8497 C.cat     1 <0>         0.6305
     10 C10        -1.6602   -8.2210    6.1522 C.3       1 <0>        -0.0319
     11 C11         2.1918    0.8805    0.7195 C.3       1 <0>        -0.0918
     12 C12         0.2821   -0.3679   -0.3105 C.3       1 <0>        -0.0841
     13 C13         1.6113    0.6116    2.1020 C.3       1 <0>         0.0870
     14 C14         0.4274   -7.1008    6.9892 C.3       1 <0>         0.2023
     15 C15        -0.2506   -0.7126    1.0828 C.3       1 <0>         0.0778
     16 C16        -1.0343   -7.4292    7.3118 C.3       1 <0>        -0.0746
     17 C17         1.0859    0.9390   -0.3376 C.3       1 <0>        -0.0681
     18 C18        -1.8422   -6.1701    7.6463 C.3       1 <0>        -0.0944
     19 C19         1.6740    1.1859   -1.7255 C.3       1 <0>        -0.0918
     20 C20        -1.0866   -2.1427    5.4567 C.3       1 <0>        -0.1192
     21 C21        -1.3133   -2.4479    3.9716 C.3       1 <0>        -0.0916
     22 C22        -2.3970   -1.9935    6.2196 C.3       1 <0>         0.1883
     23 C23        -0.0078   -2.6730    3.2260 C.3       1 <0>         0.1952
     24 N1          0.5495   -6.3981    5.7259 N.pl3     1 <0>        -0.7670
     25 N2          0.7744   -0.5925    2.1333 N.am      1 <0>        -0.4509
     26 N3         -5.1439   -4.5252    6.7900 N.pl3     1 <0>        -0.8477
     27 N4         -4.8938   -2.2796    7.5959 N.pl3     1 <0>        -0.8633
     28 N5         -3.1876   -3.2152    6.1760 N.pl3     1 <0>        -0.7419
     29 N6          0.7961   -3.6905    3.9267 N.pl3     1 <0>        -0.8860
     30 O1         -1.4385    1.2323    1.9447 O.2       1 <0>        -0.5199
     31 O2          1.6103   -1.2468    4.2054 O.2       1 <0>        -0.6131
     32 O3          2.5030   -5.6116    3.7560 O.2       1 <0>        -0.6576
     33 O4          1.3467   -4.8031    1.6743 O.2       1 <0>        -0.6482
     34 O5         -2.5854   -0.4037    0.8474 O.3       1 <0>        -0.6303
     35 S1          1.3247   -5.0804    3.0977 S.o2      1 <0>         1.5193
     36 H1         -2.5060   -7.6499    1.5947 H         1 <0>         0.1426
     37 H2         -2.9923   -8.6232    3.8135 H         1 <0>         0.1398
     38 H3         -0.5938   -6.0831    1.3193 H         1 <0>         0.1599
     39 H4         -2.7449   -8.2917    6.2993 H         1 <0>         0.0574
     40 H5         -1.2589   -9.2425    6.1550 H         1 <0>         0.0629
     41 H6          2.7495    1.8244    0.7335 H         1 <0>         0.0614
     42 H7          2.9066    0.0878    0.4640 H         1 <0>         0.0593
     43 H8          0.9336   -1.1873   -0.6438 H         1 <0>         0.0841
     44 H9         -0.5414   -0.3095   -1.0336 H         1 <0>         0.0679
     45 H10         2.4269    0.5309    2.8282 H         1 <0>         0.0826
     46 H11         0.9807    1.4504    2.4206 H         1 <0>         0.0383
     47 H12         0.8663   -6.4902    7.7861 H         1 <0>         0.0556
     48 H13         1.0113   -8.0280    6.9371 H         1 <0>         0.0415
     49 H14        -0.6325   -1.7382    1.0612 H         1 <0>         0.0851
     50 H15        -1.0595   -8.0597    8.2092 H         1 <0>         0.0639
     51 H16         0.4173    1.7778   -0.1080 H         1 <0>         0.0584
     52 H17        -2.6327   -6.0129    6.9064 H         1 <0>         0.0401
     53 H18        -2.3068   -6.2621    8.6326 H         1 <0>         0.0440
     54 H19        -1.1948   -5.2881    7.6513 H         1 <0>         0.0459
     55 H20         1.1081    0.6390   -2.4855 H         1 <0>         0.0456
     56 H21         1.6425    2.2512   -1.9725 H         1 <0>         0.0366
     57 H22         2.7156    0.8534   -1.7662 H         1 <0>         0.0474
     58 H23        -0.4913   -2.9455    5.9081 H         1 <0>         0.0800
     59 H24        -0.5143   -1.2136    5.5600 H         1 <0>         0.0681
     60 H25        -1.8840   -1.6286    3.5148 H         1 <0>         0.0740
     61 H26        -1.9315   -3.3495    3.8758 H         1 <0>         0.0631
     62 H27        -3.0022   -1.1781    5.8107 H         1 <0>         0.0970
     63 H28        -2.1935   -1.7693    7.2716 H         1 <0>         0.0725
     64 H29        -0.1638   -2.9774    2.1921 H         1 <0>         0.0839
     65 H30         1.3727   -5.8359    5.5480 H         1 <0>         0.4531
     66 H31        -4.8283   -5.3304    6.2558 H         1 <0>         0.4798
     67 H32        -6.0298   -4.6126    7.2825 H         1 <0>         0.4881
     68 H33        -4.3804   -1.4040    7.6609 H         1 <0>         0.4801
     69 H34        -5.7763   -2.3468    8.0972 H         1 <0>         0.4806
     70 H35        -2.8559   -4.0162    5.6365 H         1 <0>         0.4689
     71 H36         1.3354   -3.3564    4.7325 H         1 <0>         0.4505
     72 H37        -3.3805    0.1466    1.0133 H         1 <0>         0.4443
@<TRIPOS>BOND
     1    1    2 ar
     2    1    3 ar
     3    2    4 ar
     4    3    6 ar
     5    4    5 ar
     6    4   10 1
     7    5    6 ar
     8    5   24 1
     9    6   35 1
    10    7   15 1
    11    7   30 2
    12    7   34 1
    13    8   23 1
    14    8   25 am
    15    8   31 2
    16    9   26 1
    17    9   27 1
    18    9   28 1
    19   10   16 1
    20   11   13 1
    21   11   17 1
    22   12   15 1
    23   12   17 1
    24   13   25 1
    25   14   16 1
    26   14   24 1
    27   15   25 1
    28   16   18 1
    29   17   19 1
    30   20   21 1
    31   20   22 1
    32   21   23 1
    33   22   28 1
    34   23   29 1
    35   29   35 1
    36   32   35 2
    37   33   35 2
    38    1   36 1
    39    2   37 1
    40    3   38 1
    41   10   39 1
    42   10   40 1
    43   11   41 1
    44   11   42 1
    45   12   43 1
    46   12   44 1
    47   13   45 1
    48   13   46 1
    49   14   47 1
    50   14   48 1
    51   15   49 1
    52   16   50 1
    53   17   51 1
    54   18   52 1
    55   18   53 1
    56   18   54 1
    57   19   55 1
    58   19   56 1
    59   19   57 1
    60   20   58 1
    61   20   59 1
    62   21   60 1
    63   21   61 1
    64   22   62 1
    65   22   63 1
    66   23   64 1
    67   24   65 1
    68   26   66 1
    69   26   67 1
    70   27   68 1
    71   27   69 1
    72   28   70 1
    73   29   71 1
    74   34   72 1
@<TRIPOS>MOLECULE
1dwc_ligand_54
   72    74     0     0     0
SMALL
USER_CHARGES

mmff94s_NoEstat = 76.06
@<TRIPOS>ATOM
      1 C1         -3.3475   -6.3503    1.8791 C.ar      1 <0>        -0.1945
      2 C2         -3.9958   -5.9344    0.7180 C.ar      1 <0>        -0.0294
      3 C3         -2.9512   -5.4113    2.8268 C.ar      1 <0>        -0.0143
      4 C4         -4.2554   -4.5738    0.4999 C.ar      1 <0>        -0.1552
      5 C5         -3.8316   -3.6142    1.4408 C.ar      1 <0>         0.3076
      6 C6         -3.1944   -4.0540    2.6102 C.ar      1 <0>        -0.4908
      7 C7          1.8094   -2.2220    6.4146 C.2       1 <0>         0.5994
      8 C8          0.8654   -1.4427    3.2413 C.2       1 <0>         0.6462
      9 C9          4.1374   -5.9784    4.2279 C.cat     1 <0>         0.6305
     10 C10        -4.9524   -4.1403   -0.7675 C.3       1 <0>        -0.0319
     11 C11         1.3547    1.4153    5.5015 C.3       1 <0>        -0.0918
     12 C12         0.1935   -0.3932    6.7850 C.3       1 <0>        -0.0841
     13 C13         1.9116    0.3681    4.5455 C.3       1 <0>         0.0870
     14 C14        -4.5641   -1.7769   -0.0261 C.3       1 <0>         0.2023
     15 C15         0.6811   -1.4322    5.7719 C.3       1 <0>         0.0778
     16 C16        -5.5921   -2.7519   -0.6095 C.3       1 <0>        -0.0746
     17 C17         1.1262    0.8207    6.8935 C.3       1 <0>        -0.0681
     18 C18        -6.1301   -2.2464   -1.9453 C.3       1 <0>        -0.0944
     19 C19         0.5462    1.8676    7.8426 C.3       1 <0>        -0.0918
     20 C20         1.7689   -4.0083    2.0091 C.3       1 <0>        -0.1192
     21 C21         0.3004   -3.5693    2.0376 C.3       1 <0>        -0.0916
     22 C22         2.1396   -4.8550    3.2204 C.3       1 <0>         0.1883
     23 C23        -0.0078   -2.6730    3.2260 C.3       1 <0>         0.1952
     24 N1         -4.0757   -2.2595    1.2518 N.pl3     1 <0>        -0.7670
     25 N2          1.0754   -0.8353    4.4846 N.am      1 <0>        -0.4509
     26 N3          5.4796   -6.3403    4.1791 N.pl3     1 <0>        -0.8477
     27 N4          3.3733   -6.3549    5.3272 N.pl3     1 <0>        -0.8633
     28 N5          3.5421   -5.2449    3.1960 N.pl3     1 <0>        -0.7419
     29 N6         -1.3760   -2.1385    3.1042 N.pl3     1 <0>        -0.8860
     30 O1          2.9993   -1.9718    6.2928 O.2       1 <0>        -0.5199
     31 O2          1.3411   -1.0305    2.1799 O.2       1 <0>        -0.6131
     32 O3         -3.7495   -1.9880    4.0928 O.2       1 <0>        -0.6576
     33 O4         -2.1627   -3.7355    4.9602 O.2       1 <0>        -0.6482
     34 O5          1.3170   -3.2520    7.1454 O.3       1 <0>        -0.6303
     35 S1         -2.6746   -2.9347    3.8647 S.o2      1 <0>         1.5193
     36 H1         -3.1550   -7.4065    2.0458 H         1 <0>         0.1426
     37 H2         -4.3045   -6.6753   -0.0157 H         1 <0>         0.1398
     38 H3         -2.4509   -5.7242    3.7377 H         1 <0>         0.1599
     39 H4         -4.2148   -4.1296   -1.5800 H         1 <0>         0.0574
     40 H5         -5.7315   -4.8656   -1.0323 H         1 <0>         0.0629
     41 H6          2.0492    2.2615    5.5629 H         1 <0>         0.0614
     42 H7          0.4079    1.8038    5.1048 H         1 <0>         0.0593
     43 H8         -0.8003   -0.0449    6.4717 H         1 <0>         0.0841
     44 H9          0.0668   -0.8506    7.7745 H         1 <0>         0.0679
     45 H10         2.0225    0.8091    3.5494 H         1 <0>         0.0826
     46 H11         2.9105    0.0502    4.8680 H         1 <0>         0.0383
     47 H12        -3.7191   -1.6505   -0.7142 H         1 <0>         0.0556
     48 H13        -5.0170   -0.7893    0.1158 H         1 <0>         0.0415
     49 H14        -0.1232   -2.1562    5.6073 H         1 <0>         0.0851
     50 H15        -6.4375   -2.8304    0.0874 H         1 <0>         0.0639
     51 H16         2.0901    0.4983    7.3061 H         1 <0>         0.0584
     52 H17        -6.7909   -1.3877   -1.7933 H         1 <0>         0.0401
     53 H18        -5.3086   -1.9377   -2.5987 H         1 <0>         0.0440
     54 H19        -6.6976   -3.0320   -2.4531 H         1 <0>         0.0459
     55 H20        -0.3870    1.5087    8.2868 H         1 <0>         0.0456
     56 H21         1.2507    2.0862    8.6507 H         1 <0>         0.0366
     57 H22         0.3370    2.7982    7.3067 H         1 <0>         0.0474
     58 H23         1.9621   -4.5788    1.0926 H         1 <0>         0.0800
     59 H24         2.4183   -3.1256    1.9878 H         1 <0>         0.0681
     60 H25        -0.3448   -4.4577    2.0448 H         1 <0>         0.0740
     61 H26         0.0666   -3.0218    1.1158 H         1 <0>         0.0631
     62 H27         1.5314   -5.7638    3.2690 H         1 <0>         0.0970
     63 H28         1.9712   -4.2856    4.1400 H         1 <0>         0.0725
     64 H29         0.1003   -3.1895    4.1787 H         1 <0>         0.0839
     65 H30        -3.6865   -1.6028    1.9171 H         1 <0>         0.4531
     66 H31         6.0759   -6.0890    3.3951 H         1 <0>         0.4798
     67 H32         5.9045   -6.8743    4.9336 H         1 <0>         0.4881
     68 H33         2.3892   -6.1071    5.3950 H         1 <0>         0.4801
     69 H34         3.7791   -6.8874    6.0930 H         1 <0>         0.4806
     70 H35         4.1286   -4.9831    2.4022 H         1 <0>         0.4689
     71 H36        -1.4476   -1.1318    2.9219 H         1 <0>         0.4505
     72 H37         2.0308   -3.7759    7.5675 H         1 <0>         0.4443
@<TRIPOS>BOND
     1    1    2 ar
     2    1    3 ar
     3    2    4 ar
     4    3    6 ar
     5    4    5 ar
     6    4   10 1
     7    5    6 ar
     8    5   24 1
     9    6   35 1
    10    7   15 1
    11    7   30 2
    12    7   34 1
    13    8   23 1
    14    8   25 am
    15    8   31 2
    16    9   26 1
    17    9   27 1
    18    9   28 1
    19   10   16 1
    20   11   13 1
    21   11   17 1
    22   12   15 1
    23   12   17 1
    24   13   25 1
    25   14   16 1
    26   14   24 1
    27   15   25 1
    28   16   18 1
    29   17   19 1
    30   20   21 1
    31   20   22 1
    32   21   23 1
    33   22   28 1
    34   23   29 1
    35   29   35 1
    36   32   35 2
    37   33   35 2
    38    1   36 1
    39    2   37 1
    40    3   38 1
    41   10   39 1
    42   10   40 1
    43   11   41 1
    44   11   42 1
    45   12   43 1
    46   12   44 1
    47   13   45 1
    48   13   46 1
    49   14   47 1
    50   14   48 1
    51   15   49 1
    52   16   50 1
    53   17   51 1
    54   18   52 1
    55   18   53 1
    56   18   54 1
    57   19   55 1
    58   19   56 1
    59   19   57 1
    60   20   58 1
    61   20   59 1
    62   21   60 1
    63   21   61 1
    64   22   62 1
    65   22   63 1
    66   23   64 1
    67   24   65 1
    68   26   66 1
    69   26   67 1
    70   27   68 1
    71   27   69 1
    72   28   70 1
    73   29   71 1
    74   34   72 1
@<TRIPOS>MOLECULE
1dwc_ligand_55
   72    74     0     0     0
SMALL
USER_CHARGES

mmff94s_NoEstat = 76.08
@<TRIPOS>ATOM
      1 C1         -1.9965   -5.9212    5.9958 C.ar      1 <0>        -0.1945
      2 C2         -2.1862   -5.2163    7.1826 C.ar      1 <0>        -0.0294
      3 C3         -2.1655   -5.2788    4.7728 C.ar      1 <0>        -0.0143
      4 C4         -2.5430   -3.8606    7.1524 C.ar      1 <0>        -0.1552
      5 C5         -2.7443   -3.2106    5.9185 C.ar      1 <0>         0.3076
      6 C6         -2.5336   -3.9330    4.7351 C.ar      1 <0>        -0.4908
      7 C7          3.5686   -3.4379    3.7704 C.2       1 <0>         0.5994
      8 C8          0.8654   -1.4427    3.2413 C.2       1 <0>         0.6462
      9 C9         -0.6326   -5.9229   -1.4626 C.cat     1 <0>         0.6305
     10 C10        -2.7517   -3.1143    8.4484 C.3       1 <0>        -0.0319
     11 C11         3.4440   -0.0674    5.4719 C.3       1 <0>        -0.0918
     12 C12         3.1682   -2.4952    6.0163 C.3       1 <0>        -0.0841
     13 C13         2.9000   -0.3276    4.0730 C.3       1 <0>         0.0870
     14 C14        -3.4952   -1.1625    7.0613 C.3       1 <0>         0.2023
     15 C15         2.5392   -2.7371    4.6417 C.3       1 <0>         0.0778
     16 C16        -2.6278   -1.5957    8.2477 C.3       1 <0>        -0.0746
     17 C17         4.1435   -1.3104    6.0281 C.3       1 <0>        -0.0681
     18 C18        -3.0221   -0.8459    9.5173 C.3       1 <0>        -0.0944
     19 C19         4.6673   -1.0527    7.4396 C.3       1 <0>        -0.0918
     20 C20         0.0249   -2.8727    0.7002 C.3       1 <0>        -0.1192
     21 C21         0.3004   -3.5693    2.0376 C.3       1 <0>        -0.0916
     22 C22         0.2602   -3.7963   -0.4886 C.3       1 <0>         0.1883
     23 C23        -0.0078   -2.6730    3.2260 C.3       1 <0>         0.1952
     24 N1         -3.0973   -1.8681    5.8578 N.pl3     1 <0>        -0.7670
     25 N2          2.0252   -1.5038    4.0223 N.am      1 <0>        -0.4509
     26 N3         -1.4804   -7.0239   -1.4014 N.pl3     1 <0>        -0.8477
     27 N4          0.2178   -5.7819   -2.5539 N.pl3     1 <0>        -0.8633
     28 N5         -0.6182   -4.9567   -0.4508 N.pl3     1 <0>        -0.7419
     29 N6         -1.3760   -2.1385    3.1042 N.pl3     1 <0>        -0.8860
     30 O1          4.3335   -2.8779    2.9993 O.2       1 <0>        -0.5199
     31 O2          0.5240   -0.4555    2.5844 O.2       1 <0>        -0.6131
     32 O3         -2.5366   -4.2300    2.1492 O.2       1 <0>        -0.6576
     33 O4         -3.9323   -2.4104    3.1814 O.2       1 <0>        -0.6482
     34 O5          3.5241   -4.7791    3.9616 O.3       1 <0>        -0.6303
     35 S1         -2.7118   -3.1932    3.1483 S.o2      1 <0>         1.5193
     36 H1         -1.7136   -6.9698    6.0253 H         1 <0>         0.1426
     37 H2         -2.0492   -5.7255    8.1337 H         1 <0>         0.1398
     38 H3         -2.0145   -5.8162    3.8419 H         1 <0>         0.1599
     39 H4         -3.7469   -3.3674    8.8354 H         1 <0>         0.0574
     40 H5         -2.0117   -3.4391    9.1901 H         1 <0>         0.0629
     41 H6          4.1435    0.7764    5.4419 H         1 <0>         0.0614
     42 H7          2.6191    0.2214    6.1357 H         1 <0>         0.0593
     43 H8          2.3618   -2.2928    6.7345 H         1 <0>         0.0841
     44 H9          3.6813   -3.3988    6.3690 H         1 <0>         0.0679
     45 H10         2.3679    0.5618    3.7197 H         1 <0>         0.0826
     46 H11         3.7232   -0.5081    3.3711 H         1 <0>         0.0383
     47 H12        -4.5547   -1.3611    7.2657 H         1 <0>         0.0556
     48 H13        -3.3943   -0.0847    6.8920 H         1 <0>         0.0415
     49 H14         1.7211   -3.4548    4.7590 H         1 <0>         0.0851
     50 H15        -1.5799   -1.3538    8.0242 H         1 <0>         0.0639
     51 H16         5.0063   -1.5479    5.3937 H         1 <0>         0.0584
     52 H17        -2.7058    0.1999    9.4599 H         1 <0>         0.0401
     53 H18        -4.1069   -0.8706    9.6572 H         1 <0>         0.0440
     54 H19        -2.5511   -1.3005   10.3940 H         1 <0>         0.0459
     55 H20         4.2777   -1.8006    8.1367 H         1 <0>         0.0456
     56 H21         5.7602   -1.1000    7.4588 H         1 <0>         0.0366
     57 H22         4.3590   -0.0627    7.7891 H         1 <0>         0.0474
     58 H23        -1.0105   -2.5120    0.6824 H         1 <0>         0.0800
     59 H24         0.6776   -1.9980    0.5976 H         1 <0>         0.0681
     60 H25         1.3460   -3.9033    2.0652 H         1 <0>         0.0740
     61 H26        -0.3175   -4.4733    2.1109 H         1 <0>         0.0631
     62 H27         1.2957   -4.1503   -0.5157 H         1 <0>         0.0970
     63 H28         0.0608   -3.2615   -1.4226 H         1 <0>         0.0725
     64 H29         0.1003   -3.1895    4.1787 H         1 <0>         0.0839
     65 H30        -3.3042   -1.4652    4.9522 H         1 <0>         0.4531
     66 H31        -2.1173   -7.1693   -0.6226 H         1 <0>         0.4798
     67 H32        -1.4841   -7.7223   -2.1412 H         1 <0>         0.4881
     68 H33         0.8505   -4.9892   -2.6303 H         1 <0>         0.4801
     69 H34         0.2286   -6.4677   -3.3050 H         1 <0>         0.4806
     70 H35        -1.2539   -5.0876    0.3375 H         1 <0>         0.4689
     71 H36        -1.5021   -1.1633    3.3956 H         1 <0>         0.4505
     72 H37         4.1809   -5.2504    3.4059 H         1 <0>         0.4443
@<TRIPOS>BOND
     1    1    2 ar
     2    1    3 ar
     3    2    4 ar
     4    3    6 ar
     5    4    5 ar
     6    4   10 1
     7    5    6 ar
     8    5   24 1
     9    6   35 1
    10    7   15 1
    11    7   30 2
    12    7   34 1
    13    8   23 1
    14    8   25 am
    15    8   31 2
    16    9   26 1
    17    9   27 1
    18    9   28 1
    19   10   16 1
    20   11   13 1
    21   11   17 1
    22   12   15 1
    23   12   17 1
    24   13   25 1
    25   14   16 1
    26   14   24 1
    27   15   25 1
    28   16   18 1
    29   17   19 1
    30   20   21 1
    31   20   22 1
    32   21   23 1
    33   22   28 1
    34   23   29 1
    35   29   35 1
    36   32   35 2
    37   33   35 2
    38    1   36 1
    39    2   37 1
    40    3   38 1
    41   10   39 1
    42   10   40 1
    43   11   41 1
    44   11   42 1
    45   12   43 1
    46   12   44 1
    47   13   45 1
    48   13   46 1
    49   14   47 1
    50   14   48 1
    51   15   49 1
    52   16   50 1
    53   17   51 1
    54   18   52 1
    55   18   53 1
    56   18   54 1
    57   19   55 1
    58   19   56 1
    59   19   57 1
    60   20   58 1
    61   20   59 1
    62   21   60 1
    63   21   61 1
    64   22   62 1
    65   22   63 1
    66   23   64 1
    67   24   65 1
    68   26   66 1
    69   26   67 1
    70   27   68 1
    71   27   69 1
    72   28   70 1
    73   29   71 1
    74   34   72 1
@<TRIPOS>MOLECULE
1dwc_ligand_56
   72    74     0     0     0
SMALL
USER_CHARGES

mmff94s_NoEstat = 76.10
@<TRIPOS>ATOM
      1 C1         -3.3475   -6.3503    1.8791 C.ar      1 <0>        -0.1945
      2 C2         -3.9958   -5.9344    0.7180 C.ar      1 <0>        -0.0294
      3 C3         -2.9512   -5.4113    2.8268 C.ar      1 <0>        -0.0143
      4 C4         -4.2554   -4.5738    0.4999 C.ar      1 <0>        -0.1552
      5 C5         -3.8316   -3.6142    1.4408 C.ar      1 <0>         0.3076
      6 C6         -3.1944   -4.0540    2.6102 C.ar      1 <0>        -0.4908
      7 C7          1.8094   -2.2220    6.4146 C.2       1 <0>         0.5994
      8 C8          0.8654   -1.4427    3.2413 C.2       1 <0>         0.6462
      9 C9          4.0141   -6.1014   -0.2251 C.cat     1 <0>         0.6305
     10 C10        -4.9524   -4.1403   -0.7675 C.3       1 <0>        -0.0319
     11 C11         1.3547    1.4153    5.5015 C.3       1 <0>        -0.0918
     12 C12         0.1935   -0.3932    6.7850 C.3       1 <0>        -0.0841
     13 C13         1.9116    0.3681    4.5455 C.3       1 <0>         0.0870
     14 C14        -4.5641   -1.7769   -0.0261 C.3       1 <0>         0.2023
     15 C15         0.6811   -1.4322    5.7719 C.3       1 <0>         0.0778
     16 C16        -5.5921   -2.7519   -0.6095 C.3       1 <0>        -0.0746
     17 C17         1.1262    0.8207    6.8935 C.3       1 <0>        -0.0681
     18 C18        -6.1301   -2.2464   -1.9453 C.3       1 <0>        -0.0944
     19 C19         0.5462    1.8676    7.8426 C.3       1 <0>        -0.0918
     20 C20         1.7689   -4.0083    2.0091 C.3       1 <0>        -0.1192
     21 C21         0.3004   -3.5693    2.0376 C.3       1 <0>        -0.0916
     22 C22         2.0958   -4.8429    0.7769 C.3       1 <0>         0.1883
     23 C23        -0.0078   -2.6730    3.2260 C.3       1 <0>         0.1952
     24 N1         -4.0757   -2.2595    1.2518 N.pl3     1 <0>        -0.7670
     25 N2          1.0754   -0.8353    4.4846 N.am      1 <0>        -0.4509
     26 N3          5.3470   -6.4988   -0.2068 N.pl3     1 <0>        -0.8477
     27 N4          3.1913   -6.5359   -1.2586 N.pl3     1 <0>        -0.8633
     28 N5          3.4859   -5.2755    0.7729 N.pl3     1 <0>        -0.7419
     29 N6         -1.3760   -2.1385    3.1042 N.pl3     1 <0>        -0.8860
     30 O1          2.9993   -1.9718    6.2928 O.2       1 <0>        -0.5199
     31 O2          1.3411   -1.0305    2.1799 O.2       1 <0>        -0.6131
     32 O3         -3.7495   -1.9880    4.0928 O.2       1 <0>        -0.6576
     33 O4         -2.1627   -3.7355    4.9602 O.2       1 <0>        -0.6482
     34 O5          1.3170   -3.2520    7.1454 O.3       1 <0>        -0.6303
     35 S1         -2.6746   -2.9347    3.8647 S.o2      1 <0>         1.5193
     36 H1         -3.1550   -7.4065    2.0458 H         1 <0>         0.1426
     37 H2         -4.3045   -6.6753   -0.0157 H         1 <0>         0.1398
     38 H3         -2.4509   -5.7242    3.7377 H         1 <0>         0.1599
     39 H4         -4.2148   -4.1296   -1.5800 H         1 <0>         0.0574
     40 H5         -5.7315   -4.8656   -1.0323 H         1 <0>         0.0629
     41 H6          2.0492    2.2615    5.5629 H         1 <0>         0.0614
     42 H7          0.4079    1.8038    5.1048 H         1 <0>         0.0593
     43 H8         -0.8003   -0.0449    6.4717 H         1 <0>         0.0841
     44 H9          0.0668   -0.8506    7.7745 H         1 <0>         0.0679
     45 H10         2.0225    0.8091    3.5494 H         1 <0>         0.0826
     46 H11         2.9105    0.0502    4.8680 H         1 <0>         0.0383
     47 H12        -3.7191   -1.6505   -0.7142 H         1 <0>         0.0556
     48 H13        -5.0170   -0.7893    0.1158 H         1 <0>         0.0415
     49 H14        -0.1232   -2.1562    5.6073 H         1 <0>         0.0851
     50 H15        -6.4375   -2.8304    0.0874 H         1 <0>         0.0639
     51 H16         2.0901    0.4983    7.3061 H         1 <0>         0.0584
     52 H17        -6.7909   -1.3877   -1.7933 H         1 <0>         0.0401
     53 H18        -5.3086   -1.9377   -2.5987 H         1 <0>         0.0440
     54 H19        -6.6976   -3.0320   -2.4531 H         1 <0>         0.0459
     55 H20        -0.3870    1.5087    8.2868 H         1 <0>         0.0456
     56 H21         1.2507    2.0862    8.6507 H         1 <0>         0.0366
     57 H22         0.3370    2.7982    7.3067 H         1 <0>         0.0474
     58 H23         2.4156   -3.1229    2.0318 H         1 <0>         0.0800
     59 H24         1.9949   -4.6013    2.9028 H         1 <0>         0.0681
     60 H25        -0.3448   -4.4577    2.0448 H         1 <0>         0.0740
     61 H26         0.0666   -3.0218    1.1158 H         1 <0>         0.0631
     62 H27         1.9087   -4.2801   -0.1431 H         1 <0>         0.0970
     63 H28         1.4704   -5.7411    0.7573 H         1 <0>         0.0725
     64 H29         0.1003   -3.1895    4.1787 H         1 <0>         0.0839
     65 H30        -3.6865   -1.6028    1.9171 H         1 <0>         0.4531
     66 H31         5.9857   -6.2045    0.5272 H         1 <0>         0.4798
     67 H32         5.7233   -7.0992   -0.9370 H         1 <0>         0.4881
     68 H33         2.2121   -6.2643   -1.3027 H         1 <0>         0.4801
     69 H34         3.5471   -7.1379   -1.9973 H         1 <0>         0.4806
     70 H35         4.1145   -4.9729    1.5185 H         1 <0>         0.4689
     71 H36        -1.4476   -1.1318    2.9219 H         1 <0>         0.4505
     72 H37         2.0308   -3.7759    7.5675 H         1 <0>         0.4443
@<TRIPOS>BOND
     1    1    2 ar
     2    1    3 ar
     3    2    4 ar
     4    3    6 ar
     5    4    5 ar
     6    4   10 1
     7    5    6 ar
     8    5   24 1
     9    6   35 1
    10    7   15 1
    11    7   30 2
    12    7   34 1
    13    8   23 1
    14    8   25 am
    15    8   31 2
    16    9   26 1
    17    9   27 1
    18    9   28 1
    19   10   16 1
    20   11   13 1
    21   11   17 1
    22   12   15 1
    23   12   17 1
    24   13   25 1
    25   14   16 1
    26   14   24 1
    27   15   25 1
    28   16   18 1
    29   17   19 1
    30   20   21 1
    31   20   22 1
    32   21   23 1
    33   22   28 1
    34   23   29 1
    35   29   35 1
    36   32   35 2
    37   33   35 2
    38    1   36 1
    39    2   37 1
    40    3   38 1
    41   10   39 1
    42   10   40 1
    43   11   41 1
    44   11   42 1
    45   12   43 1
    46   12   44 1
    47   13   45 1
    48   13   46 1
    49   14   47 1
    50   14   48 1
    51   15   49 1
    52   16   50 1
    53   17   51 1
    54   18   52 1
    55   18   53 1
    56   18   54 1
    57   19   55 1
    58   19   56 1
    59   19   57 1
    60   20   58 1
    61   20   59 1
    62   21   60 1
    63   21   61 1
    64   22   62 1
    65   22   63 1
    66   23   64 1
    67   24   65 1
    68   26   66 1
    69   26   67 1
    70   27   68 1
    71   27   69 1
    72   28   70 1
    73   29   71 1
    74   34   72 1
@<TRIPOS>MOLECULE
1dwc_ligand_57
   72    74     0     0     0
SMALL
USER_CHARGES

mmff94s_NoEstat = 76.17
@<TRIPOS>ATOM
      1 C1         -0.1321   -5.1933    0.1573 C.ar      1 <0>        -0.1945
      2 C2         -1.2967   -4.4370    0.2715 C.ar      1 <0>        -0.0294
      3 C3          0.7451   -4.9615   -0.8981 C.ar      1 <0>        -0.0143
      4 C4         -1.5890   -3.4395   -0.6696 C.ar      1 <0>        -0.1552
      5 C5         -0.7207   -3.2182   -1.7571 C.ar      1 <0>         0.3076
      6 C6          0.4539   -3.9792   -1.8460 C.ar      1 <0>        -0.4908
      7 C7          1.8102   -1.5505    2.3702 C.2       1 <0>         0.5994
      8 C8          2.9466   -1.3973   -0.6457 C.2       1 <0>         0.6462
      9 C9          6.7753    0.8568   -5.4736 C.cat     1 <0>         0.6305
     10 C10        -2.8594   -2.6346   -0.5344 C.3       1 <0>        -0.0319
     11 C11         4.4920   -3.4807    2.0801 C.3       1 <0>        -0.0918
     12 C12         4.1798   -1.0721    2.8769 C.3       1 <0>        -0.0841
     13 C13         4.5658   -2.7774    0.7291 C.3       1 <0>         0.0870
     14 C14        -2.2741   -1.5731   -2.7292 C.3       1 <0>         0.2023
     15 C15         3.1125   -1.0286    1.7861 C.3       1 <0>         0.0778
     16 C16        -2.7671   -1.3070   -1.3031 C.3       1 <0>        -0.0746
     17 C17         4.5869   -2.5050    3.2643 C.3       1 <0>        -0.0681
     18 C18        -4.1147   -0.5906   -1.3139 C.3       1 <0>        -0.0944
     19 C19         5.9882   -2.5079    3.8779 C.3       1 <0>        -0.0918
     20 C20         5.1203   -2.1076   -3.7746 C.3       1 <0>        -0.1192
     21 C21         4.5564   -1.3488   -2.5679 C.3       1 <0>        -0.0916
     22 C22         6.2766   -1.3646   -4.4322 C.3       1 <0>         0.1883
     23 C23         3.4544   -2.1251   -1.8653 C.3       1 <0>         0.1952
     24 N1         -0.9842   -2.2364   -2.7044 N.pl3     1 <0>        -0.7670
     25 N2          3.5192   -1.7560    0.5781 N.am      1 <0>        -0.4509
     26 N3          6.3666    2.1153   -5.9029 N.pl3     1 <0>        -0.8477
     27 N4          8.1063    0.4860   -5.6311 N.pl3     1 <0>        -0.8633
     28 N5          5.8764   -0.0411   -4.8880 N.pl3     1 <0>        -0.7419
     29 N6          2.2741   -2.2179   -2.7432 N.pl3     1 <0>        -0.8860
     30 O1          1.2492   -1.0925    3.3546 O.2       1 <0>        -0.5199
     31 O2          2.0685   -0.5400   -0.7710 O.2       1 <0>        -0.6131
     32 O3          2.6529   -4.7521   -3.0046 O.2       1 <0>        -0.6576
     33 O4          0.8695   -3.6258   -4.3741 O.2       1 <0>        -0.6482
     34 O5          1.3501   -2.6026    1.6500 O.3       1 <0>        -0.6303
     35 S1          1.6226   -3.7401   -3.1398 S.o2      1 <0>         1.5193
     36 H1          0.0926   -5.9603    0.8933 H         1 <0>         0.1426
     37 H2         -1.9748   -4.6230    1.1010 H         1 <0>         0.1398
     38 H3          1.6583   -5.5402   -0.9937 H         1 <0>         0.1599
     39 H4         -3.6924   -3.2386   -0.9162 H         1 <0>         0.0574
     40 H5         -3.0570   -2.4229    0.5236 H         1 <0>         0.0629
     41 H6          3.5311   -4.0088    2.1410 H         1 <0>         0.0614
     42 H7          5.2694   -4.2509    2.1463 H         1 <0>         0.0593
     43 H8          5.0641   -0.5305    2.5137 H         1 <0>         0.0841
     44 H9          3.8399   -0.5392    3.7741 H         1 <0>         0.0679
     45 H10         5.5312   -2.2723    0.6079 H         1 <0>         0.0826
     46 H11         4.4795   -3.5150   -0.0747 H         1 <0>         0.0383
     47 H12        -2.9931   -2.1963   -3.2755 H         1 <0>         0.0556
     48 H13        -2.1791   -0.6302   -3.2791 H         1 <0>         0.0415
     49 H14         2.9188    0.0160    1.5141 H         1 <0>         0.0851
     50 H15        -2.0423   -0.6556   -0.7961 H         1 <0>         0.0639
     51 H16         3.9047   -2.8651    4.0450 H         1 <0>         0.0584
     52 H17        -3.9957    0.4471   -1.6395 H         1 <0>         0.0401
     53 H18        -4.8094   -1.0885   -1.9971 H         1 <0>         0.0440
     54 H19        -4.5572   -0.5891   -0.3133 H         1 <0>         0.0459
     55 H20         6.0310   -3.1862    4.7353 H         1 <0>         0.0456
     56 H21         6.7293   -2.8350    3.1425 H         1 <0>         0.0366
     57 H22         6.2606   -1.5045    4.2187 H         1 <0>         0.0474
     58 H23         5.4592   -3.1007   -3.4560 H         1 <0>         0.0800
     59 H24         4.3307   -2.2553   -4.5204 H         1 <0>         0.0681
     60 H25         4.1906   -0.3664   -2.8945 H         1 <0>         0.0740
     61 H26         5.3633   -1.1575   -1.8491 H         1 <0>         0.0631
     62 H27         6.6666   -1.9201   -5.2910 H         1 <0>         0.0970
     63 H28         7.0930   -1.2338   -3.7147 H         1 <0>         0.0725
     64 H29         3.7703   -3.1244   -1.5692 H         1 <0>         0.0839
     65 H30        -0.3716   -2.1656   -3.5075 H         1 <0>         0.4531
     66 H31         5.4041    2.4285   -5.8100 H         1 <0>         0.4798
     67 H32         7.0268    2.7620   -6.3283 H         1 <0>         0.4881
     68 H33         8.4388   -0.4263   -5.3285 H         1 <0>         0.4801
     69 H34         8.7827    1.1182   -6.0523 H         1 <0>         0.4806
     70 H35         4.9060    0.2597   -4.7858 H         1 <0>         0.4689
     71 H36         1.6613   -1.3957   -2.7560 H         1 <0>         0.4505
     72 H37         0.5099   -2.9556    2.0129 H         1 <0>         0.4443
@<TRIPOS>BOND
     1    1    2 ar
     2    1    3 ar
     3    2    4 ar
     4    3    6 ar
     5    4    5 ar
     6    4   10 1
     7    5    6 ar
     8    5   24 1
     9    6   35 1
    10    7   15 1
    11    7   30 2
    12    7   34 1
    13    8   23 1
    14    8   25 am
    15    8   31 2
    16    9   26 1
    17    9   27 1
    18    9   28 1
    19   10   16 1
    20   11   13 1
    21   11   17 1
    22   12   15 1
    23   12   17 1
    24   13   25 1
    25   14   16 1
    26   14   24 1
    27   15   25 1
    28   16   18 1
    29   17   19 1
    30   20   21 1
    31   20   22 1
    32   21   23 1
    33   22   28 1
    34   23   29 1
    35   29   35 1
    36   32   35 2
    37   33   35 2
    38    1   36 1
    39    2   37 1
    40    3   38 1
    41   10   39 1
    42   10   40 1
    43   11   41 1
    44   11   42 1
    45   12   43 1
    46   12   44 1
    47   13   45 1
    48   13   46 1
    49   14   47 1
    50   14   48 1
    51   15   49 1
    52   16   50 1
    53   17   51 1
    54   18   52 1
    55   18   53 1
    56   18   54 1
    57   19   55 1
    58   19   56 1
    59   19   57 1
    60   20   58 1
    61   20   59 1
    62   21   60 1
    63   21   61 1
    64   22   62 1
    65   22   63 1
    66   23   64 1
    67   24   65 1
    68   26   66 1
    69   26   67 1
    70   27   68 1
    71   27   69 1
    72   28   70 1
    73   29   71 1
    74   34   72 1
@<TRIPOS>MOLECULE
1dwc_ligand_58
   72    74     0     0     0
SMALL
USER_CHARGES

mmff94s_NoEstat = 76.18
@<TRIPOS>ATOM
      1 C1          2.5116   -3.9380   -0.5557 C.ar      1 <0>        -0.1945
      2 C2          3.7426   -3.3274   -0.3259 C.ar      1 <0>        -0.0294
      3 C3          1.7913   -4.4690    0.5101 C.ar      1 <0>        -0.0143
      4 C4          4.2632   -3.2477    0.9738 C.ar      1 <0>        -0.1552
      5 C5          3.5271   -3.7571    2.0614 C.ar      1 <0>         0.3076
      6 C6          2.2973   -4.3819    1.8081 C.ar      1 <0>        -0.4908
      7 C7         -1.2359   -0.6984    0.6725 C.2       1 <0>         0.5994
      8 C8          0.8654   -1.4427    3.2413 C.2       1 <0>         0.6462
      9 C9         -3.2174   -1.4380    8.5188 C.cat     1 <0>         0.6305
     10 C10         5.5952   -2.5748    1.2036 C.3       1 <0>        -0.0319
     11 C11         1.8315    1.4466    1.1834 C.3       1 <0>        -0.0918
     12 C12         0.9831   -0.3423   -0.3484 C.3       1 <0>        -0.0841
     13 C13         1.0260    0.8397    2.3251 C.3       1 <0>         0.0870
     14 C14         5.1895   -2.8951    3.6625 C.3       1 <0>         0.2023
     15 C15         0.2462   -1.0009    0.8207 C.3       1 <0>         0.0778
     16 C16         6.2338   -2.9744    2.5437 C.3       1 <0>        -0.0746
     17 C17         1.1635    1.1707   -0.1661 C.3       1 <0>        -0.0681
     18 C18         6.8920   -4.3571    2.4737 C.3       1 <0>        -0.0944
     19 C19         1.9862    1.7609   -1.3098 C.3       1 <0>        -0.0918
     20 C20        -1.0866   -2.1427    5.4567 C.3       1 <0>        -0.1192
     21 C21        -1.3133   -2.4479    3.9716 C.3       1 <0>        -0.0916
     22 C22        -2.3970   -1.9935    6.2196 C.3       1 <0>         0.1883
     23 C23        -0.0078   -2.6730    3.2260 C.3       1 <0>         0.1952
     24 N1          4.0208   -3.6991    3.3587 N.pl3     1 <0>        -0.7670
     25 N2          0.7744   -0.5925    2.1333 N.am      1 <0>        -0.4509
     26 N3         -2.9736   -1.1414    9.8558 N.pl3     1 <0>        -0.8477
     27 N4         -4.5309   -1.4955    8.0658 N.pl3     1 <0>        -0.8633
     28 N5         -2.1703   -1.6789    7.6229 N.pl3     1 <0>        -0.7419
     29 N6          0.7961   -3.6905    3.9267 N.pl3     1 <0>        -0.8860
     30 O1         -1.8192    0.2321    1.2084 O.2       1 <0>        -0.5199
     31 O2          1.6103   -1.2468    4.2054 O.2       1 <0>        -0.6131
     32 O3          0.1838   -5.7392    2.4909 O.2       1 <0>        -0.6576
     33 O4          2.2286   -5.8263    3.9523 O.2       1 <0>        -0.6482
     34 O5         -1.8312   -1.6071   -0.1380 O.3       1 <0>        -0.6303
     35 S1          1.3247   -5.0804    3.0977 S.o2      1 <0>         1.5193
     36 H1          2.1160   -4.0026   -1.5657 H         1 <0>         0.1426
     37 H2          4.2999   -2.9178   -1.1651 H         1 <0>         0.1398
     38 H3          0.8339   -4.9524    0.3425 H         1 <0>         0.1599
     39 H4          6.2849   -2.8099    0.3837 H         1 <0>         0.0574
     40 H5          5.4270   -1.4903    1.1935 H         1 <0>         0.0629
     41 H6          1.9320    2.5271    1.3399 H         1 <0>         0.0614
     42 H7          2.8448    1.0248    1.1881 H         1 <0>         0.0593
     43 H8          1.9753   -0.8057   -0.4365 H         1 <0>         0.0841
     44 H9          0.4607   -0.5403   -1.2930 H         1 <0>         0.0679
     45 H10         1.5496    1.0140    3.2709 H         1 <0>         0.0826
     46 H11         0.0484    1.3304    2.4051 H         1 <0>         0.0383
     47 H12         5.6214   -3.2300    4.6122 H         1 <0>         0.0556
     48 H13         4.8765   -1.8531    3.8022 H         1 <0>         0.0415
     49 H14         0.3330   -2.0869    0.7143 H         1 <0>         0.0851
     50 H15         7.0369   -2.2610    2.7660 H         1 <0>         0.0639
     51 H16         0.1795    1.6553   -0.1825 H         1 <0>         0.0584
     52 H17         6.6629   -4.8441    1.5211 H         1 <0>         0.0401
     53 H18         7.9790   -4.2705    2.5637 H         1 <0>         0.0440
     54 H19         6.5291   -4.9970    3.2836 H         1 <0>         0.0459
     55 H20         1.9407    1.1129   -2.1902 H         1 <0>         0.0456
     56 H21         1.6048    2.7479   -1.5883 H         1 <0>         0.0366
     57 H22         3.0342    1.8673   -1.0143 H         1 <0>         0.0474
     58 H23        -0.4913   -2.9455    5.9081 H         1 <0>         0.0800
     59 H24        -0.5143   -1.2136    5.5600 H         1 <0>         0.0681
     60 H25        -1.8840   -1.6286    3.5148 H         1 <0>         0.0740
     61 H26        -1.9315   -3.3495    3.8758 H         1 <0>         0.0631
     62 H27        -2.9930   -2.9100    6.1652 H         1 <0>         0.0970
     63 H28        -2.9889   -1.1790    5.7901 H         1 <0>         0.0725
     64 H29        -0.1638   -2.9774    2.1921 H         1 <0>         0.0839
     65 H30         3.4221   -4.0102    4.1139 H         1 <0>         0.4531
     66 H31        -2.0306   -1.0905   10.2318 H         1 <0>         0.4798
     67 H32        -3.7410   -0.9681   10.5009 H         1 <0>         0.4881
     68 H33        -4.7448   -1.7097    7.0948 H         1 <0>         0.4801
     69 H34        -5.3125   -1.3238    8.6938 H         1 <0>         0.4806
     70 H35        -1.2168   -1.6295    7.9850 H         1 <0>         0.4689
     71 H36         1.3354   -3.3564    4.7325 H         1 <0>         0.4505
     72 H37        -2.7902   -1.4300   -0.2450 H         1 <0>         0.4443
@<TRIPOS>BOND
     1    1    2 ar
     2    1    3 ar
     3    2    4 ar
     4    3    6 ar
     5    4    5 ar
     6    4   10 1
     7    5    6 ar
     8    5   24 1
     9    6   35 1
    10    7   15 1
    11    7   30 2
    12    7   34 1
    13    8   23 1
    14    8   25 am
    15    8   31 2
    16    9   26 1
    17    9   27 1
    18    9   28 1
    19   10   16 1
    20   11   13 1
    21   11   17 1
    22   12   15 1
    23   12   17 1
    24   13   25 1
    25   14   16 1
    26   14   24 1
    27   15   25 1
    28   16   18 1
    29   17   19 1
    30   20   21 1
    31   20   22 1
    32   21   23 1
    33   22   28 1
    34   23   29 1
    35   29   35 1
    36   32   35 2
    37   33   35 2
    38    1   36 1
    39    2   37 1
    40    3   38 1
    41   10   39 1
    42   10   40 1
    43   11   41 1
    44   11   42 1
    45   12   43 1
    46   12   44 1
    47   13   45 1
    48   13   46 1
    49   14   47 1
    50   14   48 1
    51   15   49 1
    52   16   50 1
    53   17   51 1
    54   18   52 1
    55   18   53 1
    56   18   54 1
    57   19   55 1
    58   19   56 1
    59   19   57 1
    60   20   58 1
    61   20   59 1
    62   21   60 1
    63   21   61 1
    64   22   62 1
    65   22   63 1
    66   23   64 1
    67   24   65 1
    68   26   66 1
    69   26   67 1
    70   27   68 1
    71   27   69 1
    72   28   70 1
    73   29   71 1
    74   34   72 1
@<TRIPOS>MOLECULE
1dwc_ligand_59
   72    74     0     0     0
SMALL
USER_CHARGES

mmff94s_NoEstat = 76.18
@<TRIPOS>ATOM
      1 C1         -1.9965   -5.9212    5.9958 C.ar      1 <0>        -0.1945
      2 C2         -2.1862   -5.2163    7.1826 C.ar      1 <0>        -0.0294
      3 C3         -2.1655   -5.2788    4.7728 C.ar      1 <0>        -0.0143
      4 C4         -2.5430   -3.8606    7.1524 C.ar      1 <0>        -0.1552
      5 C5         -2.7443   -3.2106    5.9185 C.ar      1 <0>         0.3076
      6 C6         -2.5336   -3.9330    4.7351 C.ar      1 <0>        -0.4908
      7 C7          3.5686   -3.4379    3.7704 C.2       1 <0>         0.5994
      8 C8          0.8654   -1.4427    3.2413 C.2       1 <0>         0.6462
      9 C9          2.0746   -5.2044   -1.4852 C.cat     1 <0>         0.6305
     10 C10        -2.7517   -3.1143    8.4484 C.3       1 <0>        -0.0319
     11 C11         3.4440   -0.0674    5.4719 C.3       1 <0>        -0.0918
     12 C12         3.1682   -2.4952    6.0163 C.3       1 <0>        -0.0841
     13 C13         2.9000   -0.3276    4.0730 C.3       1 <0>         0.0870
     14 C14        -3.4952   -1.1625    7.0613 C.3       1 <0>         0.2023
     15 C15         2.5392   -2.7371    4.6417 C.3       1 <0>         0.0778
     16 C16        -2.6278   -1.5957    8.2477 C.3       1 <0>        -0.0746
     17 C17         4.1435   -1.3104    6.0281 C.3       1 <0>        -0.0681
     18 C18        -3.0221   -0.8459    9.5173 C.3       1 <0>        -0.0944
     19 C19         4.6673   -1.0527    7.4396 C.3       1 <0>        -0.0918
     20 C20         0.0249   -2.8727    0.7002 C.3       1 <0>        -0.1192
     21 C21         0.3004   -3.5693    2.0376 C.3       1 <0>        -0.0916
     22 C22         0.2602   -3.7963   -0.4886 C.3       1 <0>         0.1883
     23 C23        -0.0078   -2.6730    3.2260 C.3       1 <0>         0.1952
     24 N1         -3.0973   -1.8681    5.8578 N.pl3     1 <0>        -0.7670
     25 N2          2.0252   -1.5038    4.0223 N.am      1 <0>        -0.4509
     26 N3          3.3877   -5.6631   -1.4955 N.pl3     1 <0>        -0.8477
     27 N4          1.1890   -5.6621   -2.4548 N.pl3     1 <0>        -0.8633
     28 N5          1.6278   -4.2942   -0.5212 N.pl3     1 <0>        -0.7419
     29 N6         -1.3760   -2.1385    3.1042 N.pl3     1 <0>        -0.8860
     30 O1          4.3335   -2.8779    2.9993 O.2       1 <0>        -0.5199
     31 O2          0.5240   -0.4555    2.5844 O.2       1 <0>        -0.6131
     32 O3         -2.5366   -4.2300    2.1492 O.2       1 <0>        -0.6576
     33 O4         -3.9323   -2.4104    3.1814 O.2       1 <0>        -0.6482
     34 O5          3.5241   -4.7791    3.9616 O.3       1 <0>        -0.6303
     35 S1         -2.7118   -3.1932    3.1483 S.o2      1 <0>         1.5193
     36 H1         -1.7136   -6.9698    6.0253 H         1 <0>         0.1426
     37 H2         -2.0492   -5.7255    8.1337 H         1 <0>         0.1398
     38 H3         -2.0145   -5.8162    3.8419 H         1 <0>         0.1599
     39 H4         -3.7469   -3.3674    8.8354 H         1 <0>         0.0574
     40 H5         -2.0117   -3.4391    9.1901 H         1 <0>         0.0629
     41 H6          4.1435    0.7764    5.4419 H         1 <0>         0.0614
     42 H7          2.6191    0.2214    6.1357 H         1 <0>         0.0593
     43 H8          2.3618   -2.2928    6.7345 H         1 <0>         0.0841
     44 H9          3.6813   -3.3988    6.3690 H         1 <0>         0.0679
     45 H10         2.3679    0.5618    3.7197 H         1 <0>         0.0826
     46 H11         3.7232   -0.5081    3.3711 H         1 <0>         0.0383
     47 H12        -4.5547   -1.3611    7.2657 H         1 <0>         0.0556
     48 H13        -3.3943   -0.0847    6.8920 H         1 <0>         0.0415
     49 H14         1.7211   -3.4548    4.7590 H         1 <0>         0.0851
     50 H15        -1.5799   -1.3538    8.0242 H         1 <0>         0.0639
     51 H16         5.0063   -1.5479    5.3937 H         1 <0>         0.0584
     52 H17        -2.7058    0.1999    9.4599 H         1 <0>         0.0401
     53 H18        -4.1069   -0.8706    9.6572 H         1 <0>         0.0440
     54 H19        -2.5511   -1.3005   10.3940 H         1 <0>         0.0459
     55 H20         4.2777   -1.8006    8.1367 H         1 <0>         0.0456
     56 H21         5.7602   -1.1000    7.4588 H         1 <0>         0.0366
     57 H22         4.3590   -0.0627    7.7891 H         1 <0>         0.0474
     58 H23        -1.0105   -2.5120    0.6824 H         1 <0>         0.0800
     59 H24         0.6776   -1.9980    0.5976 H         1 <0>         0.0681
     60 H25         1.3460   -3.9033    2.0652 H         1 <0>         0.0740
     61 H26        -0.3175   -4.4733    2.1109 H         1 <0>         0.0631
     62 H27         0.0590   -3.2831   -1.4342 H         1 <0>         0.0970
     63 H28        -0.4054   -4.6631   -0.4257 H         1 <0>         0.0725
     64 H29         0.1003   -3.1895    4.1787 H         1 <0>         0.0839
     65 H30        -3.3042   -1.4652    4.9522 H         1 <0>         0.4531
     66 H31         4.0702   -5.3548   -0.8082 H         1 <0>         0.4798
     67 H32         3.7046   -6.3246   -2.2006 H         1 <0>         0.4881
     68 H33         0.2221   -5.3473   -2.4765 H         1 <0>         0.4801
     69 H34         1.4849   -6.3248   -3.1675 H         1 <0>         0.4806
     70 H35         2.3012   -3.9765    0.1776 H         1 <0>         0.4689
     71 H36        -1.5021   -1.1633    3.3956 H         1 <0>         0.4505
     72 H37         4.1809   -5.2504    3.4059 H         1 <0>         0.4443
@<TRIPOS>BOND
     1    1    2 ar
     2    1    3 ar
     3    2    4 ar
     4    3    6 ar
     5    4    5 ar
     6    4   10 1
     7    5    6 ar
     8    5   24 1
     9    6   35 1
    10    7   15 1
    11    7   30 2
    12    7   34 1
    13    8   23 1
    14    8   25 am
    15    8   31 2
    16    9   26 1
    17    9   27 1
    18    9   28 1
    19   10   16 1
    20   11   13 1
    21   11   17 1
    22   12   15 1
    23   12   17 1
    24   13   25 1
    25   14   16 1
    26   14   24 1
    27   15   25 1
    28   16   18 1
    29   17   19 1
    30   20   21 1
    31   20   22 1
    32   21   23 1
    33   22   28 1
    34   23   29 1
    35   29   35 1
    36   32   35 2
    37   33   35 2
    38    1   36 1
    39    2   37 1
    40    3   38 1
    41   10   39 1
    42   10   40 1
    43   11   41 1
    44   11   42 1
    45   12   43 1
    46   12   44 1
    47   13   45 1
    48   13   46 1
    49   14   47 1
    50   14   48 1
    51   15   49 1
    52   16   50 1
    53   17   51 1
    54   18   52 1
    55   18   53 1
    56   18   54 1
    57   19   55 1
    58   19   56 1
    59   19   57 1
    60   20   58 1
    61   20   59 1
    62   21   60 1
    63   21   61 1
    64   22   62 1
    65   22   63 1
    66   23   64 1
    67   24   65 1
    68   26   66 1
    69   26   67 1
    70   27   68 1
    71   27   69 1
    72   28   70 1
    73   29   71 1
    74   34   72 1
@<TRIPOS>MOLECULE
1dwc_ligand_60
   72    74     0     0     0
SMALL
USER_CHARGES

mmff94s_NoEstat = 76.19
@<TRIPOS>ATOM
      1 C1         -3.2355   -5.0148    6.4799 C.ar      1 <0>        -0.1945
      2 C2         -4.2884   -5.5400    5.7336 C.ar      1 <0>        -0.0294
      3 C3         -2.6234   -3.8310    6.0789 C.ar      1 <0>        -0.0143
      4 C4         -4.7385   -4.8800    4.5812 C.ar      1 <0>        -0.1552
      5 C5         -4.1052   -3.6965    4.1523 C.ar      1 <0>         0.3076
      6 C6         -3.0575   -3.1757    4.9254 C.ar      1 <0>        -0.4908
      7 C7          3.7233   -2.4449    4.7893 C.2       1 <0>         0.5994
      8 C8          0.8654   -1.4427    3.2413 C.2       1 <0>         0.6462
      9 C9          4.0141   -6.1014   -0.2251 C.cat     1 <0>         0.6305
     10 C10        -5.8759   -5.4673    3.7804 C.3       1 <0>        -0.0319
     11 C11         1.7658    0.4222    6.2790 C.3       1 <0>        -0.0918
     12 C12         2.2228   -2.0030    6.6989 C.3       1 <0>        -0.0841
     13 C13         1.9003    0.1799    4.7810 C.3       1 <0>         0.0870
     14 C14        -5.4818   -3.6385    2.1112 C.3       1 <0>         0.2023
     15 C15         2.2690   -2.2605    5.1905 C.3       1 <0>         0.0778
     16 C16        -6.5499   -4.4038    2.8993 C.3       1 <0>        -0.0746
     17 C17         2.6202   -0.5689    7.0736 C.3       1 <0>        -0.0681
     18 C18        -7.5704   -5.0425    1.9612 C.3       1 <0>        -0.0944
     19 C19         2.4647   -0.3375    8.5754 C.3       1 <0>        -0.0918
     20 C20         1.7689   -4.0083    2.0091 C.3       1 <0>        -0.1192
     21 C21         0.3004   -3.5693    2.0376 C.3       1 <0>        -0.0916
     22 C22         2.0958   -4.8429    0.7769 C.3       1 <0>         0.1883
     23 C23        -0.0078   -2.6730    3.2260 C.3       1 <0>         0.1952
     24 N1         -4.5300   -3.0206    3.0151 N.pl3     1 <0>        -0.7670
     25 N2          1.5999   -1.2067    4.4091 N.am      1 <0>        -0.4509
     26 N3          5.3470   -6.4988   -0.2068 N.pl3     1 <0>        -0.8477
     27 N4          3.1913   -6.5359   -1.2586 N.pl3     1 <0>        -0.8633
     28 N5          3.4859   -5.2755    0.7729 N.pl3     1 <0>        -0.7419
     29 N6         -1.3760   -2.1385    3.1042 N.pl3     1 <0>        -0.8860
     30 O1          4.4523   -1.5599    4.3665 O.2       1 <0>        -0.5199
     31 O2          0.8891   -0.7105    2.2483 O.2       1 <0>        -0.6131
     32 O3         -3.2514   -0.7039    4.1330 O.2       1 <0>        -0.6576
     33 O4         -1.2997   -1.3890    5.5632 O.2       1 <0>        -0.6482
     34 O5          4.1079   -3.7331    4.9617 O.3       1 <0>        -0.6303
     35 S1         -2.2397   -1.6774    4.4970 S.o2      1 <0>         1.5193
     36 H1         -2.8954   -5.5270    7.3757 H         1 <0>         0.1426
     37 H2         -4.7626   -6.4639    6.0561 H         1 <0>         0.1398
     38 H3         -1.8065   -3.4094    6.6557 H         1 <0>         0.1599
     39 H4         -5.4767   -6.2793    3.1592 H         1 <0>         0.0574
     40 H5         -6.6243   -5.8997    4.4558 H         1 <0>         0.0629
     41 H6          2.0669    1.4503    6.5123 H         1 <0>         0.0614
     42 H7          0.7128    0.3207    6.5714 H         1 <0>         0.0593
     43 H8          1.1978   -2.1858    7.0494 H         1 <0>         0.0841
     44 H9          2.8666   -2.7151    7.2306 H         1 <0>         0.0679
     45 H10         1.2456    0.8722    4.2416 H         1 <0>         0.0826
     46 H11         2.9258    0.3867    4.4518 H         1 <0>         0.0383
     47 H12        -4.9499   -4.3126    1.4283 H         1 <0>         0.0556
     48 H13        -5.9488   -2.8592    1.4988 H         1 <0>         0.0415
     49 H14         1.7884   -3.2235    4.9909 H         1 <0>         0.0851
     50 H15        -7.0837   -3.6956    3.5475 H         1 <0>         0.0639
     51 H16         3.6763   -0.4106    6.8224 H         1 <0>         0.0584
     52 H17        -8.2149   -4.2783    1.5167 H         1 <0>         0.0401
     53 H18        -7.0658   -5.5804    1.1530 H         1 <0>         0.0440
     54 H19        -8.2016   -5.7514    2.5054 H         1 <0>         0.0459
     55 H20         2.1532   -1.2591    9.0761 H         1 <0>         0.0456
     56 H21         3.4121   -0.0103    9.0142 H         1 <0>         0.0366
     57 H22         1.7112    0.4316    8.7697 H         1 <0>         0.0474
     58 H23         2.4156   -3.1229    2.0318 H         1 <0>         0.0800
     59 H24         1.9949   -4.6013    2.9028 H         1 <0>         0.0681
     60 H25        -0.3448   -4.4577    2.0448 H         1 <0>         0.0740
     61 H26         0.0666   -3.0218    1.1158 H         1 <0>         0.0631
     62 H27         1.9087   -4.2801   -0.1431 H         1 <0>         0.0970
     63 H28         1.4704   -5.7411    0.7573 H         1 <0>         0.0725
     64 H29         0.1003   -3.1895    4.1787 H         1 <0>         0.0839
     65 H30        -3.9968   -2.2176    2.7049 H         1 <0>         0.4531
     66 H31         5.9857   -6.2045    0.5272 H         1 <0>         0.4798
     67 H32         5.7233   -7.0992   -0.9370 H         1 <0>         0.4881
     68 H33         2.2121   -6.2643   -1.3027 H         1 <0>         0.4801
     69 H34         3.5471   -7.1379   -1.9973 H         1 <0>         0.4806
     70 H35         4.1145   -4.9729    1.5185 H         1 <0>         0.4689
     71 H36        -1.6042   -1.6955    2.2078 H         1 <0>         0.4505
     72 H37         5.0446   -3.8732    4.7061 H         1 <0>         0.4443
@<TRIPOS>BOND
     1    1    2 ar
     2    1    3 ar
     3    2    4 ar
     4    3    6 ar
     5    4    5 ar
     6    4   10 1
     7    5    6 ar
     8    5   24 1
     9    6   35 1
    10    7   15 1
    11    7   30 2
    12    7   34 1
    13    8   23 1
    14    8   25 am
    15    8   31 2
    16    9   26 1
    17    9   27 1
    18    9   28 1
    19   10   16 1
    20   11   13 1
    21   11   17 1
    22   12   15 1
    23   12   17 1
    24   13   25 1
    25   14   16 1
    26   14   24 1
    27   15   25 1
    28   16   18 1
    29   17   19 1
    30   20   21 1
    31   20   22 1
    32   21   23 1
    33   22   28 1
    34   23   29 1
    35   29   35 1
    36   32   35 2
    37   33   35 2
    38    1   36 1
    39    2   37 1
    40    3   38 1
    41   10   39 1
    42   10   40 1
    43   11   41 1
    44   11   42 1
    45   12   43 1
    46   12   44 1
    47   13   45 1
    48   13   46 1
    49   14   47 1
    50   14   48 1
    51   15   49 1
    52   16   50 1
    53   17   51 1
    54   18   52 1
    55   18   53 1
    56   18   54 1
    57   19   55 1
    58   19   56 1
    59   19   57 1
    60   20   58 1
    61   20   59 1
    62   21   60 1
    63   21   61 1
    64   22   62 1
    65   22   63 1
    66   23   64 1
    67   24   65 1
    68   26   66 1
    69   26   67 1
    70   27   68 1
    71   27   69 1
    72   28   70 1
    73   29   71 1
    74   34   72 1
@<TRIPOS>MOLECULE
1dwc_ligand_61
   72    74     0     0     0
SMALL
USER_CHARGES

mmff94s_NoEstat = 76.20
@<TRIPOS>ATOM
      1 C1          3.3055   -6.8449   -1.9341 C.ar      1 <0>        -0.1945
      2 C2          3.8095   -7.1580   -3.1947 C.ar      1 <0>        -0.0294
      3 C3          2.5030   -5.7201   -1.7675 C.ar      1 <0>        -0.0143
      4 C4          3.5095   -6.3479   -4.2992 C.ar      1 <0>        -0.1552
      5 C5          2.7217   -5.1914   -4.1335 C.ar      1 <0>         0.3076
      6 C6          2.2111   -4.9017   -2.8599 C.ar      1 <0>        -0.4908
      7 C7          1.8102   -1.5505    2.3702 C.2       1 <0>         0.5994
      8 C8          2.9466   -1.3973   -0.6457 C.2       1 <0>         0.6462
      9 C9          6.2513   -1.9189   -6.8735 C.cat     1 <0>         0.6305
     10 C10         4.0704   -6.6982   -5.6567 C.3       1 <0>        -0.0319
     11 C11         4.4920   -3.4807    2.0801 C.3       1 <0>        -0.0918
     12 C12         4.1798   -1.0721    2.8769 C.3       1 <0>        -0.0841
     13 C13         4.5658   -2.7774    0.7291 C.3       1 <0>         0.0870
     14 C14         3.0733   -4.5524   -6.4856 C.3       1 <0>         0.2023
     15 C15         3.1125   -1.0286    1.7861 C.3       1 <0>         0.0778
     16 C16         3.2586   -6.0435   -6.7854 C.3       1 <0>        -0.0746
     17 C17         4.5869   -2.5050    3.2643 C.3       1 <0>        -0.0681
     18 C18         3.9400   -6.2504   -8.1353 C.3       1 <0>        -0.0944
     19 C19         5.9882   -2.5079    3.8779 C.3       1 <0>        -0.0918
     20 C20         5.1203   -2.1076   -3.7746 C.3       1 <0>        -0.1192
     21 C21         4.5564   -1.3488   -2.5679 C.3       1 <0>        -0.0916
     22 C22         6.2766   -1.3646   -4.4322 C.3       1 <0>         0.1883
     23 C23         3.4544   -2.1251   -1.8653 C.3       1 <0>         0.1952
     24 N1          2.4075   -4.3705   -5.2096 N.pl3     1 <0>        -0.7670
     25 N2          3.5192   -1.7560    0.5781 N.am      1 <0>        -0.4509
     26 N3          6.7595   -2.6146   -7.9655 N.pl3     1 <0>        -0.8477
     27 N4          5.1873   -1.0435   -7.0628 N.pl3     1 <0>        -0.8633
     28 N5          6.7875   -2.0816   -5.5916 N.pl3     1 <0>        -0.7419
     29 N6          2.2741   -2.2179   -2.7432 N.pl3     1 <0>        -0.8860
     30 O1          1.2492   -1.0925    3.3546 O.2       1 <0>        -0.5199
     31 O2          2.0685   -0.5400   -0.7710 O.2       1 <0>        -0.6131
     32 O3          0.1927   -3.4494   -3.6292 O.2       1 <0>        -0.6576
     33 O4          0.7527   -3.5815   -1.1810 O.2       1 <0>        -0.6482
     34 O5          1.3501   -2.6026    1.6500 O.3       1 <0>        -0.6303
     35 S1          1.1775   -3.5081   -2.5659 S.o2      1 <0>         1.5193
     36 H1          3.5358   -7.4800   -1.0832 H         1 <0>         0.1426
     37 H2          4.4333   -8.0405   -3.3162 H         1 <0>         0.1398
     38 H3          2.0998   -5.4697   -0.7914 H         1 <0>         0.1599
     39 H4          5.1147   -6.3633   -5.6949 H         1 <0>         0.0574
     40 H5          4.0627   -7.7864   -5.7947 H         1 <0>         0.0629
     41 H6          3.5311   -4.0088    2.1410 H         1 <0>         0.0614
     42 H7          5.2694   -4.2509    2.1463 H         1 <0>         0.0593
     43 H8          5.0641   -0.5305    2.5137 H         1 <0>         0.0841
     44 H9          3.8399   -0.5392    3.7741 H         1 <0>         0.0679
     45 H10         5.5312   -2.2723    0.6079 H         1 <0>         0.0826
     46 H11         4.4795   -3.5150   -0.0747 H         1 <0>         0.0383
     47 H12         4.0431   -4.0398   -6.4660 H         1 <0>         0.0556
     48 H13         2.4729   -4.0799   -7.2710 H         1 <0>         0.0415
     49 H14         2.9188    0.0160    1.5141 H         1 <0>         0.0851
     50 H15         2.2693   -6.5190   -6.8298 H         1 <0>         0.0639
     51 H16         3.9047   -2.8651    4.0450 H         1 <0>         0.0584
     52 H17         3.2554   -6.0057   -8.9529 H         1 <0>         0.0401
     53 H18         4.8233   -5.6107   -8.2222 H         1 <0>         0.0440
     54 H19         4.2559   -7.2916   -8.2507 H         1 <0>         0.0459
     55 H20         6.0310   -3.1862    4.7353 H         1 <0>         0.0456
     56 H21         6.7293   -2.8350    3.1425 H         1 <0>         0.0366
     57 H22         6.2606   -1.5045    4.2187 H         1 <0>         0.0474
     58 H23         5.4592   -3.1007   -3.4560 H         1 <0>         0.0800
     59 H24         4.3307   -2.2553   -4.5204 H         1 <0>         0.0681
     60 H25         4.1906   -0.3664   -2.8945 H         1 <0>         0.0740
     61 H26         5.3633   -1.1575   -1.8491 H         1 <0>         0.0631
     62 H27         7.1023   -1.2161   -3.7290 H         1 <0>         0.0970
     63 H28         5.9419   -0.3800   -4.7739 H         1 <0>         0.0725
     64 H29         3.7703   -3.1244   -1.5692 H         1 <0>         0.0839
     65 H30         1.9026   -3.5116   -5.0286 H         1 <0>         0.4531
     66 H31         7.5371   -3.2630   -7.8752 H         1 <0>         0.4798
     67 H32         6.3639   -2.4900   -8.8945 H         1 <0>         0.4881
     68 H33         4.7916   -0.5190   -6.2864 H         1 <0>         0.4801
     69 H34         4.7762   -0.9057   -7.9829 H         1 <0>         0.4806
     70 H35         7.5680   -2.7311   -5.4842 H         1 <0>         0.4689
     71 H36         1.9407   -1.3323   -3.1385 H         1 <0>         0.4505
     72 H37         0.5099   -2.9556    2.0129 H         1 <0>         0.4443
@<TRIPOS>BOND
     1    1    2 ar
     2    1    3 ar
     3    2    4 ar
     4    3    6 ar
     5    4    5 ar
     6    4   10 1
     7    5    6 ar
     8    5   24 1
     9    6   35 1
    10    7   15 1
    11    7   30 2
    12    7   34 1
    13    8   23 1
    14    8   25 am
    15    8   31 2
    16    9   26 1
    17    9   27 1
    18    9   28 1
    19   10   16 1
    20   11   13 1
    21   11   17 1
    22   12   15 1
    23   12   17 1
    24   13   25 1
    25   14   16 1
    26   14   24 1
    27   15   25 1
    28   16   18 1
    29   17   19 1
    30   20   21 1
    31   20   22 1
    32   21   23 1
    33   22   28 1
    34   23   29 1
    35   29   35 1
    36   32   35 2
    37   33   35 2
    38    1   36 1
    39    2   37 1
    40    3   38 1
    41   10   39 1
    42   10   40 1
    43   11   41 1
    44   11   42 1
    45   12   43 1
    46   12   44 1
    47   13   45 1
    48   13   46 1
    49   14   47 1
    50   14   48 1
    51   15   49 1
    52   16   50 1
    53   17   51 1
    54   18   52 1
    55   18   53 1
    56   18   54 1
    57   19   55 1
    58   19   56 1
    59   19   57 1
    60   20   58 1
    61   20   59 1
    62   21   60 1
    63   21   61 1
    64   22   62 1
    65   22   63 1
    66   23   64 1
    67   24   65 1
    68   26   66 1
    69   26   67 1
    70   27   68 1
    71   27   69 1
    72   28   70 1
    73   29   71 1
    74   34   72 1
@<TRIPOS>MOLECULE
1dwc_ligand_62
   72    74     0     0     0
SMALL
USER_CHARGES

mmff94s_NoEstat = 76.28
@<TRIPOS>ATOM
      1 C1          0.6009   -5.4402   -0.5450 C.ar      1 <0>        -0.1945
      2 C2          1.9177   -5.1745   -0.9146 C.ar      1 <0>        -0.0294
      3 C3          0.2538   -5.4826    0.8019 C.ar      1 <0>        -0.0143
      4 C4          2.8980   -4.9531    0.0635 C.ar      1 <0>        -0.1552
      5 C5          2.5489   -4.9659    1.4281 C.ar      1 <0>         0.3076
      6 C6          1.2217   -5.2505    1.7807 C.ar      1 <0>        -0.4908
      7 C7         -1.4628    0.1636    1.3526 C.2       1 <0>         0.5994
      8 C8          0.8654   -1.4427    3.2413 C.2       1 <0>         0.6462
      9 C9         -4.5827   -3.2129    6.2808 C.cat     1 <0>         0.6305
     10 C10         4.3179   -4.6587   -0.3572 C.3       1 <0>        -0.0319
     11 C11         2.1918    0.8805    0.7195 C.3       1 <0>        -0.0918
     12 C12         0.2821   -0.3679   -0.3105 C.3       1 <0>        -0.0841
     13 C13         1.6113    0.6116    2.1020 C.3       1 <0>         0.0870
     14 C14         4.8245   -4.2772    2.0742 C.3       1 <0>         0.2023
     15 C15        -0.2506   -0.7126    1.0828 C.3       1 <0>         0.0778
     16 C16         5.3306   -4.9077    0.7723 C.3       1 <0>        -0.0746
     17 C17         1.0859    0.9390   -0.3376 C.3       1 <0>        -0.0681
     18 C18         5.6414   -6.3991    0.9431 C.3       1 <0>        -0.0944
     19 C19         1.6740    1.1859   -1.7255 C.3       1 <0>        -0.0918
     20 C20        -1.0866   -2.1427    5.4567 C.3       1 <0>        -0.1192
     21 C21        -1.3133   -2.4479    3.9716 C.3       1 <0>        -0.0916
     22 C22        -2.3970   -1.9935    6.2196 C.3       1 <0>         0.1883
     23 C23        -0.0078   -2.6730    3.2260 C.3       1 <0>         0.1952
     24 N1          3.4999   -4.7575    2.4193 N.pl3     1 <0>        -0.7670
     25 N2          0.7744   -0.5925    2.1333 N.am      1 <0>        -0.4509
     26 N3         -5.3150   -4.3946    6.2340 N.pl3     1 <0>        -0.8477
     27 N4         -5.2542   -2.0049    6.4353 N.pl3     1 <0>        -0.8633
     28 N5         -3.1876   -3.2152    6.1760 N.pl3     1 <0>        -0.7419
     29 N6          0.7961   -3.6905    3.9267 N.pl3     1 <0>        -0.8860
     30 O1         -2.4527    0.2312    0.6392 O.2       1 <0>        -0.5199
     31 O2          1.6103   -1.2468    4.2054 O.2       1 <0>        -0.6131
     32 O3         -0.6876   -5.7475    3.4786 O.2       1 <0>        -0.6576
     33 O4          1.7036   -6.0834    4.1813 O.2       1 <0>        -0.6482
     34 O5         -1.2983    0.8686    2.4985 O.3       1 <0>        -0.6303
     35 S1          0.6998   -5.3249    3.4597 S.o2      1 <0>         1.5193
     36 H1         -0.1532   -5.6173   -1.3071 H         1 <0>         0.1426
     37 H2          2.1805   -5.1462   -1.9695 H         1 <0>         0.1398
     38 H3         -0.7676   -5.6946    1.1020 H         1 <0>         0.1599
     39 H4          4.5872   -5.2635   -1.2316 H         1 <0>         0.0574
     40 H5          4.3648   -3.6041   -0.6574 H         1 <0>         0.0629
     41 H6          2.7495    1.8244    0.7335 H         1 <0>         0.0614
     42 H7          2.9066    0.0878    0.4640 H         1 <0>         0.0593
     43 H8          0.9336   -1.1873   -0.6438 H         1 <0>         0.0841
     44 H9         -0.5414   -0.3095   -1.0336 H         1 <0>         0.0679
     45 H10         2.4269    0.5309    2.8282 H         1 <0>         0.0826
     46 H11         0.9807    1.4504    2.4206 H         1 <0>         0.0383
     47 H12         5.5138   -4.4958    2.8973 H         1 <0>         0.0556
     48 H13         4.7892   -3.1861    1.9666 H         1 <0>         0.0415
     49 H14        -0.6325   -1.7382    1.0612 H         1 <0>         0.0851
     50 H15         6.2762   -4.4249    0.4964 H         1 <0>         0.0639
     51 H16         0.4173    1.7778   -0.1080 H         1 <0>         0.0584
     52 H17         4.9808   -7.0038    0.3146 H         1 <0>         0.0401
     53 H18         6.6765   -6.6112    0.6589 H         1 <0>         0.0440
     54 H19         5.5005   -6.7043    1.9843 H         1 <0>         0.0459
     55 H20         1.1081    0.6390   -2.4855 H         1 <0>         0.0456
     56 H21         1.6425    2.2512   -1.9725 H         1 <0>         0.0366
     57 H22         2.7156    0.8534   -1.7662 H         1 <0>         0.0474
     58 H23        -0.4913   -2.9455    5.9081 H         1 <0>         0.0800
     59 H24        -0.5143   -1.2136    5.5600 H         1 <0>         0.0681
     60 H25        -1.8840   -1.6286    3.5148 H         1 <0>         0.0740
     61 H26        -1.9315   -3.3495    3.8758 H         1 <0>         0.0631
     62 H27        -3.0022   -1.1781    5.8107 H         1 <0>         0.0970
     63 H28        -2.1935   -1.7693    7.2716 H         1 <0>         0.0725
     64 H29        -0.1638   -2.9774    2.1921 H         1 <0>         0.0839
     65 H30         3.1862   -4.7016    3.3805 H         1 <0>         0.4531
     66 H31        -4.8675   -5.3002    6.1203 H         1 <0>         0.4798
     67 H32        -6.3295   -4.3840    6.3104 H         1 <0>         0.4881
     68 H33        -4.7498   -1.1225    6.4734 H         1 <0>         0.4801
     69 H34        -6.2677   -1.9724    6.5154 H         1 <0>         0.4806
     70 H35        -2.7230   -4.1175    6.0634 H         1 <0>         0.4689
     71 H36         1.6533   -3.3509    4.3757 H         1 <0>         0.4505
     72 H37        -2.0705    1.4427    2.6896 H         1 <0>         0.4443
@<TRIPOS>BOND
     1    1    2 ar
     2    1    3 ar
     3    2    4 ar
     4    3    6 ar
     5    4    5 ar
     6    4   10 1
     7    5    6 ar
     8    5   24 1
     9    6   35 1
    10    7   15 1
    11    7   30 2
    12    7   34 1
    13    8   23 1
    14    8   25 am
    15    8   31 2
    16    9   26 1
    17    9   27 1
    18    9   28 1
    19   10   16 1
    20   11   13 1
    21   11   17 1
    22   12   15 1
    23   12   17 1
    24   13   25 1
    25   14   16 1
    26   14   24 1
    27   15   25 1
    28   16   18 1
    29   17   19 1
    30   20   21 1
    31   20   22 1
    32   21   23 1
    33   22   28 1
    34   23   29 1
    35   29   35 1
    36   32   35 2
    37   33   35 2
    38    1   36 1
    39    2   37 1
    40    3   38 1
    41   10   39 1
    42   10   40 1
    43   11   41 1
    44   11   42 1
    45   12   43 1
    46   12   44 1
    47   13   45 1
    48   13   46 1
    49   14   47 1
    50   14   48 1
    51   15   49 1
    52   16   50 1
    53   17   51 1
    54   18   52 1
    55   18   53 1
    56   18   54 1
    57   19   55 1
    58   19   56 1
    59   19   57 1
    60   20   58 1
    61   20   59 1
    62   21   60 1
    63   21   61 1
    64   22   62 1
    65   22   63 1
    66   23   64 1
    67   24   65 1
    68   26   66 1
    69   26   67 1
    70   27   68 1
    71   27   69 1
    72   28   70 1
    73   29   71 1
    74   34   72 1
@<TRIPOS>MOLECULE
1dwc_ligand_63
   72    74     0     0     0
SMALL
USER_CHARGES

mmff94s_NoEstat = 76.32
@<TRIPOS>ATOM
      1 C1          1.6845   -5.9778    0.1844 C.ar      1 <0>        -0.1945
      2 C2          0.6520   -5.4496    0.9566 C.ar      1 <0>        -0.0294
      3 C3          1.9606   -5.4374   -1.0681 C.ar      1 <0>        -0.0143
      4 C4         -0.1093   -4.3725    0.4806 C.ar      1 <0>        -0.1552
      5 C5          0.1450   -3.8386   -0.7984 C.ar      1 <0>         0.3076
      6 C6          1.1982   -4.3739   -1.5539 C.ar      1 <0>        -0.4908
      7 C7          1.8102   -1.5505    2.3702 C.2       1 <0>         0.5994
      8 C8          2.9466   -1.3973   -0.6457 C.2       1 <0>         0.6462
      9 C9          7.3062   -4.5323   -1.8364 C.cat     1 <0>         0.6305
     10 C10        -1.2292   -3.8175    1.3278 C.3       1 <0>        -0.0319
     11 C11         4.4920   -3.4807    2.0801 C.3       1 <0>        -0.0918
     12 C12         4.1798   -1.0721    2.8769 C.3       1 <0>        -0.0841
     13 C13         4.5658   -2.7774    0.7291 C.3       1 <0>         0.0870
     14 C14        -1.7931   -2.3309   -0.6108 C.3       1 <0>         0.2023
     15 C15         3.1125   -1.0286    1.7861 C.3       1 <0>         0.0778
     16 C16        -1.5940   -2.3850    0.9075 C.3       1 <0>        -0.0746
     17 C17         4.5869   -2.5050    3.2643 C.3       1 <0>        -0.0681
     18 C18        -2.8431   -1.9049    1.6414 C.3       1 <0>        -0.0944
     19 C19         5.9882   -2.5079    3.8779 C.3       1 <0>        -0.0918
     20 C20         5.1203   -2.1076   -3.7746 C.3       1 <0>        -0.1192
     21 C21         4.5564   -1.3488   -2.5679 C.3       1 <0>        -0.0916
     22 C22         5.6479   -3.4850   -3.3924 C.3       1 <0>         0.1883
     23 C23         3.4544   -2.1251   -1.8653 C.3       1 <0>         0.1952
     24 N1         -0.5924   -2.7711   -1.2958 N.pl3     1 <0>        -0.7670
     25 N2          3.5192   -1.7560    0.5781 N.am      1 <0>        -0.4509
     26 N3          8.3122   -4.4229   -0.8820 N.pl3     1 <0>        -0.8477
     27 N4          6.8952   -5.7960   -2.2464 N.pl3     1 <0>        -0.8633
     28 N5          6.7009   -3.3994   -2.3908 N.pl3     1 <0>        -0.7419
     29 N6          2.2741   -2.2179   -2.7432 N.pl3     1 <0>        -0.8860
     30 O1          1.4308   -2.7108    2.3137 O.2       1 <0>        -0.5199
     31 O2          2.0685   -0.5400   -0.7710 O.2       1 <0>        -0.6131
     32 O3          2.6686   -4.5798   -3.6918 O.2       1 <0>        -0.6576
     33 O4          0.3811   -3.5494   -3.8650 O.2       1 <0>        -0.6482
     34 O5          1.1172   -0.5491    2.9655 O.3       1 <0>        -0.6303
     35 S1          1.6226   -3.7401   -3.1398 S.o2      1 <0>         1.5193
     36 H1          2.2754   -6.8081    0.5612 H         1 <0>         0.1426
     37 H2          0.4453   -5.8762    1.9353 H         1 <0>         0.1398
     38 H3          2.7663   -5.8367   -1.6758 H         1 <0>         0.1599
     39 H4         -2.0994   -4.4781    1.2245 H         1 <0>         0.0574
     40 H5         -0.9335   -3.8165    2.3842 H         1 <0>         0.0629
     41 H6          3.5311   -4.0088    2.1410 H         1 <0>         0.0614
     42 H7          5.2694   -4.2509    2.1463 H         1 <0>         0.0593
     43 H8          5.0641   -0.5305    2.5137 H         1 <0>         0.0841
     44 H9          3.8399   -0.5392    3.7741 H         1 <0>         0.0679
     45 H10         5.5312   -2.2723    0.6079 H         1 <0>         0.0826
     46 H11         4.4795   -3.5150   -0.0747 H         1 <0>         0.0383
     47 H12        -2.6365   -2.9647   -0.9116 H         1 <0>         0.0556
     48 H13        -2.0279   -1.3080   -0.9257 H         1 <0>         0.0415
     49 H14         2.9188    0.0160    1.5141 H         1 <0>         0.0851
     50 H15        -0.7654   -1.7164    1.1777 H         1 <0>         0.0639
     51 H16         3.9047   -2.8651    4.0450 H         1 <0>         0.0584
     52 H17        -2.9604   -0.8225    1.5328 H         1 <0>         0.0401
     53 H18        -3.7366   -2.3905    1.2379 H         1 <0>         0.0440
     54 H19        -2.7758   -2.1387    2.7081 H         1 <0>         0.0459
     55 H20         6.0310   -3.1862    4.7353 H         1 <0>         0.0456
     56 H21         6.7293   -2.8350    3.1425 H         1 <0>         0.0366
     57 H22         6.2606   -1.5045    4.2187 H         1 <0>         0.0474
     58 H23         4.3389   -2.2150   -4.5365 H         1 <0>         0.0800
     59 H24         5.9381   -1.5325   -4.2238 H         1 <0>         0.0681
     60 H25         4.1906   -0.3664   -2.8945 H         1 <0>         0.0740
     61 H26         5.3633   -1.1575   -1.8491 H         1 <0>         0.0631
     62 H27         6.0463   -4.0122   -4.2651 H         1 <0>         0.0970
     63 H28         4.8397   -4.0910   -2.9708 H         1 <0>         0.0725
     64 H29         3.7703   -3.1244   -1.5692 H         1 <0>         0.0839
     65 H30        -0.4235   -2.4715   -2.2481 H         1 <0>         0.4531
     66 H31         8.6460   -3.5206   -0.5539 H         1 <0>         0.4798
     67 H32         8.7476   -5.2520   -0.4844 H         1 <0>         0.4881
     68 H33         6.1625   -5.9122   -2.9422 H         1 <0>         0.4801
     69 H34         7.3161   -6.6377   -1.8601 H         1 <0>         0.4806
     70 H35         7.0240   -2.4854   -2.0698 H         1 <0>         0.4689
     71 H36         1.6613   -1.3957   -2.7560 H         1 <0>         0.4505
     72 H37         0.2712   -0.8659    3.3478 H         1 <0>         0.4443
@<TRIPOS>BOND
     1    1    2 ar
     2    1    3 ar
     3    2    4 ar
     4    3    6 ar
     5    4    5 ar
     6    4   10 1
     7    5    6 ar
     8    5   24 1
     9    6   35 1
    10    7   15 1
    11    7   30 2
    12    7   34 1
    13    8   23 1
    14    8   25 am
    15    8   31 2
    16    9   26 1
    17    9   27 1
    18    9   28 1
    19   10   16 1
    20   11   13 1
    21   11   17 1
    22   12   15 1
    23   12   17 1
    24   13   25 1
    25   14   16 1
    26   14   24 1
    27   15   25 1
    28   16   18 1
    29   17   19 1
    30   20   21 1
    31   20   22 1
    32   21   23 1
    33   22   28 1
    34   23   29 1
    35   29   35 1
    36   32   35 2
    37   33   35 2
    38    1   36 1
    39    2   37 1
    40    3   38 1
    41   10   39 1
    42   10   40 1
    43   11   41 1
    44   11   42 1
    45   12   43 1
    46   12   44 1
    47   13   45 1
    48   13   46 1
    49   14   47 1
    50   14   48 1
    51   15   49 1
    52   16   50 1
    53   17   51 1
    54   18   52 1
    55   18   53 1
    56   18   54 1
    57   19   55 1
    58   19   56 1
    59   19   57 1
    60   20   58 1
    61   20   59 1
    62   21   60 1
    63   21   61 1
    64   22   62 1
    65   22   63 1
    66   23   64 1
    67   24   65 1
    68   26   66 1
    69   26   67 1
    70   27   68 1
    71   27   69 1
    72   28   70 1
    73   29   71 1
    74   34   72 1
@<TRIPOS>MOLECULE
1dwc_ligand_64
   72    74     0     0     0
SMALL
USER_CHARGES

mmff94s_NoEstat = 76.36
@<TRIPOS>ATOM
      1 C1         -3.2355   -5.0148    6.4799 C.ar      1 <0>        -0.1945
      2 C2         -4.2884   -5.5400    5.7336 C.ar      1 <0>        -0.0294
      3 C3         -2.6234   -3.8310    6.0789 C.ar      1 <0>        -0.0143
      4 C4         -4.7385   -4.8800    4.5812 C.ar      1 <0>        -0.1552
      5 C5         -4.1052   -3.6965    4.1523 C.ar      1 <0>         0.3076
      6 C6         -3.0575   -3.1757    4.9254 C.ar      1 <0>        -0.4908
      7 C7          3.7233   -2.4449    4.7893 C.2       1 <0>         0.5994
      8 C8          0.8654   -1.4427    3.2413 C.2       1 <0>         0.6462
      9 C9          1.3456   -6.9412   -0.3642 C.cat     1 <0>         0.6305
     10 C10        -5.8759   -5.4673    3.7804 C.3       1 <0>        -0.0319
     11 C11         1.7658    0.4222    6.2790 C.3       1 <0>        -0.0918
     12 C12         2.2228   -2.0030    6.6989 C.3       1 <0>        -0.0841
     13 C13         1.9003    0.1799    4.7810 C.3       1 <0>         0.0870
     14 C14        -5.4818   -3.6385    2.1112 C.3       1 <0>         0.2023
     15 C15         2.2690   -2.2605    5.1905 C.3       1 <0>         0.0778
     16 C16        -6.5499   -4.4038    2.8993 C.3       1 <0>        -0.0746
     17 C17         2.6202   -0.5689    7.0736 C.3       1 <0>        -0.0681
     18 C18        -7.5704   -5.0425    1.9612 C.3       1 <0>        -0.0944
     19 C19         2.4647   -0.3375    8.5754 C.3       1 <0>        -0.0918
     20 C20         1.7689   -4.0083    2.0091 C.3       1 <0>        -0.1192
     21 C21         0.3004   -3.5693    2.0376 C.3       1 <0>        -0.0916
     22 C22         2.0958   -4.8429    0.7769 C.3       1 <0>         0.1883
     23 C23        -0.0078   -2.6730    3.2260 C.3       1 <0>         0.1952
     24 N1         -4.5300   -3.0206    3.0151 N.pl3     1 <0>        -0.7670
     25 N2          1.5999   -1.2067    4.4091 N.am      1 <0>        -0.4509
     26 N3          0.5495   -8.0810   -0.4079 N.pl3     1 <0>        -0.8477
     27 N4          2.2318   -6.6929   -1.4069 N.pl3     1 <0>        -0.8633
     28 N5          1.2730   -6.0418    0.7049 N.pl3     1 <0>        -0.7419
     29 N6         -1.3760   -2.1385    3.1042 N.pl3     1 <0>        -0.8860
     30 O1          4.4876   -3.2640    5.2775 O.2       1 <0>        -0.5199
     31 O2          0.8891   -0.7105    2.2483 O.2       1 <0>        -0.6131
     32 O3         -3.2514   -0.7039    4.1330 O.2       1 <0>        -0.6576
     33 O4         -1.2997   -1.3890    5.5632 O.2       1 <0>        -0.6482
     34 O5          4.0646   -1.5707    3.8113 O.3       1 <0>        -0.6303
     35 S1         -2.2397   -1.6774    4.4970 S.o2      1 <0>         1.5193
     36 H1         -2.8954   -5.5270    7.3757 H         1 <0>         0.1426
     37 H2         -4.7626   -6.4639    6.0561 H         1 <0>         0.1398
     38 H3         -1.8065   -3.4094    6.6557 H         1 <0>         0.1599
     39 H4         -5.4767   -6.2793    3.1592 H         1 <0>         0.0574
     40 H5         -6.6243   -5.8997    4.4558 H         1 <0>         0.0629
     41 H6          2.0669    1.4503    6.5123 H         1 <0>         0.0614
     42 H7          0.7128    0.3207    6.5714 H         1 <0>         0.0593
     43 H8          1.1978   -2.1858    7.0494 H         1 <0>         0.0841
     44 H9          2.8666   -2.7151    7.2306 H         1 <0>         0.0679
     45 H10         1.2456    0.8722    4.2416 H         1 <0>         0.0826
     46 H11         2.9258    0.3867    4.4518 H         1 <0>         0.0383
     47 H12        -4.9499   -4.3126    1.4283 H         1 <0>         0.0556
     48 H13        -5.9488   -2.8592    1.4988 H         1 <0>         0.0415
     49 H14         1.7884   -3.2235    4.9909 H         1 <0>         0.0851
     50 H15        -7.0837   -3.6956    3.5475 H         1 <0>         0.0639
     51 H16         3.6763   -0.4106    6.8224 H         1 <0>         0.0584
     52 H17        -8.2149   -4.2783    1.5167 H         1 <0>         0.0401
     53 H18        -7.0658   -5.5804    1.1530 H         1 <0>         0.0440
     54 H19        -8.2016   -5.7514    2.5054 H         1 <0>         0.0459
     55 H20         2.1532   -1.2591    9.0761 H         1 <0>         0.0456
     56 H21         3.4121   -0.0103    9.0142 H         1 <0>         0.0366
     57 H22         1.7112    0.4316    8.7697 H         1 <0>         0.0474
     58 H23         2.4156   -3.1229    2.0318 H         1 <0>         0.0800
     59 H24         1.9949   -4.6013    2.9028 H         1 <0>         0.0681
     60 H25        -0.3448   -4.4577    2.0448 H         1 <0>         0.0740
     61 H26         0.0666   -3.0218    1.1158 H         1 <0>         0.0631
     62 H27         3.1472   -5.1474    0.7729 H         1 <0>         0.0970
     63 H28         1.9091   -4.2592   -0.1301 H         1 <0>         0.0725
     64 H29         0.1003   -3.1895    4.1787 H         1 <0>         0.0839
     65 H30        -3.9968   -2.2176    2.7049 H         1 <0>         0.4531
     66 H31        -0.1107   -8.3043    0.3321 H         1 <0>         0.4798
     67 H32         0.6091   -8.7303   -1.1889 H         1 <0>         0.4881
     68 H33         2.8285   -5.8692   -1.4068 H         1 <0>         0.4801
     69 H34         2.3056   -7.3283   -2.1978 H         1 <0>         0.4806
     70 H35         0.6129   -6.2511    1.4553 H         1 <0>         0.4689
     71 H36        -1.6042   -1.6955    2.2078 H         1 <0>         0.4505
     72 H37         5.0017   -1.6726    3.5394 H         1 <0>         0.4443
@<TRIPOS>BOND
     1    1    2 ar
     2    1    3 ar
     3    2    4 ar
     4    3    6 ar
     5    4    5 ar
     6    4   10 1
     7    5    6 ar
     8    5   24 1
     9    6   35 1
    10    7   15 1
    11    7   30 2
    12    7   34 1
    13    8   23 1
    14    8   25 am
    15    8   31 2
    16    9   26 1
    17    9   27 1
    18    9   28 1
    19   10   16 1
    20   11   13 1
    21   11   17 1
    22   12   15 1
    23   12   17 1
    24   13   25 1
    25   14   16 1
    26   14   24 1
    27   15   25 1
    28   16   18 1
    29   17   19 1
    30   20   21 1
    31   20   22 1
    32   21   23 1
    33   22   28 1
    34   23   29 1
    35   29   35 1
    36   32   35 2
    37   33   35 2
    38    1   36 1
    39    2   37 1
    40    3   38 1
    41   10   39 1
    42   10   40 1
    43   11   41 1
    44   11   42 1
    45   12   43 1
    46   12   44 1
    47   13   45 1
    48   13   46 1
    49   14   47 1
    50   14   48 1
    51   15   49 1
    52   16   50 1
    53   17   51 1
    54   18   52 1
    55   18   53 1
    56   18   54 1
    57   19   55 1
    58   19   56 1
    59   19   57 1
    60   20   58 1
    61   20   59 1
    62   21   60 1
    63   21   61 1
    64   22   62 1
    65   22   63 1
    66   23   64 1
    67   24   65 1
    68   26   66 1
    69   26   67 1
    70   27   68 1
    71   27   69 1
    72   28   70 1
    73   29   71 1
    74   34   72 1
@<TRIPOS>MOLECULE
1dwc_ligand_65
   72    74     0     0     0
SMALL
USER_CHARGES

mmff94s_NoEstat = 76.37
@<TRIPOS>ATOM
      1 C1          1.6845   -5.9778    0.1844 C.ar      1 <0>        -0.1945
      2 C2          0.6520   -5.4496    0.9566 C.ar      1 <0>        -0.0294
      3 C3          1.9606   -5.4374   -1.0681 C.ar      1 <0>        -0.0143
      4 C4         -0.1093   -4.3725    0.4806 C.ar      1 <0>        -0.1552
      5 C5          0.1450   -3.8386   -0.7984 C.ar      1 <0>         0.3076
      6 C6          1.1982   -4.3739   -1.5539 C.ar      1 <0>        -0.4908
      7 C7          2.7064   -0.1192    2.3072 C.2       1 <0>         0.5994
      8 C8          2.9466   -1.3973   -0.6457 C.2       1 <0>         0.6462
      9 C9          6.5364    0.5009   -5.9324 C.cat     1 <0>         0.6305
     10 C10        -1.2292   -3.8175    1.3278 C.3       1 <0>        -0.0319
     11 C11         5.2891   -2.1972    2.1884 C.3       1 <0>        -0.0918
     12 C12         5.0977    0.3338    1.8863 C.3       1 <0>        -0.0841
     13 C13         4.9490   -2.1654    0.7022 C.3       1 <0>         0.0870
     14 C14        -1.7931   -2.3309   -0.6108 C.3       1 <0>         0.2023
     15 C15         3.7674   -0.0162    1.2240 C.3       1 <0>         0.0778
     16 C16        -1.5940   -2.3850    0.9075 C.3       1 <0>        -0.0746
     17 C17         5.6645   -0.8131    2.7422 C.3       1 <0>        -0.0681
     18 C18        -2.8431   -1.9049    1.6414 C.3       1 <0>        -0.0944
     19 C19         7.1799   -0.6635    2.8882 C.3       1 <0>        -0.0918
     20 C20         4.0666    0.0061   -3.0917 C.3       1 <0>        -0.1192
     21 C21         4.5564   -1.3488   -2.5679 C.3       1 <0>        -0.0916
     22 C22         5.1498    0.7503   -3.8628 C.3       1 <0>         0.1883
     23 C23         3.4544   -2.1251   -1.8653 C.3       1 <0>         0.1952
     24 N1         -0.5924   -2.7711   -1.2958 N.pl3     1 <0>        -0.7670
     25 N2          3.8547   -1.2301    0.4039 N.am      1 <0>        -0.4509
     26 N3          6.9409   -0.2356   -7.0409 N.pl3     1 <0>        -0.8477
     27 N4          7.0867    1.7598   -5.7173 N.pl3     1 <0>        -0.8633
     28 N5          5.5893    0.0019   -5.0317 N.pl3     1 <0>        -0.7419
     29 N6          2.2741   -2.2179   -2.7432 N.pl3     1 <0>        -0.8860
     30 O1          2.4216    0.7685    3.0973 O.2       1 <0>        -0.5199
     31 O2          1.7818   -0.9917   -0.6208 O.2       1 <0>        -0.6131
     32 O3          2.6686   -4.5798   -3.6918 O.2       1 <0>        -0.6576
     33 O4          0.3811   -3.5494   -3.8650 O.2       1 <0>        -0.6482
     34 O5          2.1141   -1.3382    2.2827 O.3       1 <0>        -0.6303
     35 S1          1.6226   -3.7401   -3.1398 S.o2      1 <0>         1.5193
     36 H1          2.2754   -6.8081    0.5612 H         1 <0>         0.1426
     37 H2          0.4453   -5.8762    1.9353 H         1 <0>         0.1398
     38 H3          2.7663   -5.8367   -1.6758 H         1 <0>         0.1599
     39 H4         -2.0994   -4.4781    1.2245 H         1 <0>         0.0574
     40 H5         -0.9335   -3.8165    2.3842 H         1 <0>         0.0629
     41 H6          4.4096   -2.5633    2.7347 H         1 <0>         0.0614
     42 H7          6.0897   -2.9223    2.3757 H         1 <0>         0.0593
     43 H8          5.8186    0.5861    1.0964 H         1 <0>         0.0841
     44 H9          4.9971    1.2321    2.5089 H         1 <0>         0.0679
     45 H10         5.8170   -1.8466    0.1132 H         1 <0>         0.0826
     46 H11         4.6769   -3.1705    0.3656 H         1 <0>         0.0383
     47 H12        -2.6365   -2.9647   -0.9116 H         1 <0>         0.0556
     48 H13        -2.0279   -1.3080   -0.9257 H         1 <0>         0.0415
     49 H14         3.4560    0.8159    0.5811 H         1 <0>         0.0851
     50 H15        -0.7654   -1.7164    1.1777 H         1 <0>         0.0639
     51 H16         5.2454   -0.7368    3.7536 H         1 <0>         0.0584
     52 H17        -2.9604   -0.8225    1.5328 H         1 <0>         0.0401
     53 H18        -3.7366   -2.3905    1.2379 H         1 <0>         0.0440
     54 H19        -2.7758   -2.1387    2.7081 H         1 <0>         0.0459
     55 H20         7.4927   -0.8988    3.9099 H         1 <0>         0.0456
     56 H21         7.7008   -1.3400    2.2040 H         1 <0>         0.0366
     57 H22         7.4886    0.3613    2.6609 H         1 <0>         0.0474
     58 H23         3.1961   -0.1462   -3.7411 H         1 <0>         0.0800
     59 H24         3.7428    0.6319   -2.2522 H         1 <0>         0.0681
     60 H25         5.4094   -1.1917   -1.8946 H         1 <0>         0.0740
     61 H26         4.9285   -1.9502   -3.4070 H         1 <0>         0.0631
     62 H27         6.0226    0.9442   -3.2312 H         1 <0>         0.0970
     63 H28         4.7647    1.7133   -4.2128 H         1 <0>         0.0725
     64 H29         3.7703   -3.1244   -1.5692 H         1 <0>         0.0839
     65 H30        -0.4235   -2.4715   -2.2481 H         1 <0>         0.4531
     66 H31         6.5676   -1.1605   -7.2371 H         1 <0>         0.4798
     67 H32         7.6308    0.1346   -7.6906 H         1 <0>         0.4881
     68 H33         6.8135    2.3249   -4.9169 H         1 <0>         0.4801
     69 H34         7.7763    2.1491   -6.3557 H         1 <0>         0.4806
     70 H35         5.2033   -0.9252   -5.2162 H         1 <0>         0.4689
     71 H36         1.6613   -1.3957   -2.7560 H         1 <0>         0.4505
     72 H37         1.4264   -1.4253    2.9768 H         1 <0>         0.4443
@<TRIPOS>BOND
     1    1    2 ar
     2    1    3 ar
     3    2    4 ar
     4    3    6 ar
     5    4    5 ar
     6    4   10 1
     7    5    6 ar
     8    5   24 1
     9    6   35 1
    10    7   15 1
    11    7   30 2
    12    7   34 1
    13    8   23 1
    14    8   25 am
    15    8   31 2
    16    9   26 1
    17    9   27 1
    18    9   28 1
    19   10   16 1
    20   11   13 1
    21   11   17 1
    22   12   15 1
    23   12   17 1
    24   13   25 1
    25   14   16 1
    26   14   24 1
    27   15   25 1
    28   16   18 1
    29   17   19 1
    30   20   21 1
    31   20   22 1
    32   21   23 1
    33   22   28 1
    34   23   29 1
    35   29   35 1
    36   32   35 2
    37   33   35 2
    38    1   36 1
    39    2   37 1
    40    3   38 1
    41   10   39 1
    42   10   40 1
    43   11   41 1
    44   11   42 1
    45   12   43 1
    46   12   44 1
    47   13   45 1
    48   13   46 1
    49   14   47 1
    50   14   48 1
    51   15   49 1
    52   16   50 1
    53   17   51 1
    54   18   52 1
    55   18   53 1
    56   18   54 1
    57   19   55 1
    58   19   56 1
    59   19   57 1
    60   20   58 1
    61   20   59 1
    62   21   60 1
    63   21   61 1
    64   22   62 1
    65   22   63 1
    66   23   64 1
    67   24   65 1
    68   26   66 1
    69   26   67 1
    70   27   68 1
    71   27   69 1
    72   28   70 1
    73   29   71 1
    74   34   72 1
@<TRIPOS>MOLECULE
1dwc_ligand_66
   72    74     0     0     0
SMALL
USER_CHARGES

mmff94s_NoEstat = 76.37
@<TRIPOS>ATOM
      1 C1          1.9247   -5.6076   -5.8968 C.ar      1 <0>        -0.1945
      2 C2          2.8785   -6.5393   -5.4922 C.ar      1 <0>        -0.0294
      3 C3          1.4180   -4.6909   -4.9805 C.ar      1 <0>        -0.0143
      4 C4          3.3347   -6.5563   -4.1664 C.ar      1 <0>        -0.1552
      5 C5          2.8054   -5.6505   -3.2257 C.ar      1 <0>         0.3076
      6 C6          1.8576   -4.7107   -3.6559 C.ar      1 <0>        -0.4908
      7 C7          1.8102   -1.5505    2.3702 C.2       1 <0>         0.5994
      8 C8          2.9466   -1.3973   -0.6457 C.2       1 <0>         0.6462
      9 C9          8.5933   -0.5790   -3.8993 C.cat     1 <0>         0.6305
     10 C10         4.3633   -7.5778   -3.7437 C.3       1 <0>        -0.0319
     11 C11         4.4920   -3.4807    2.0801 C.3       1 <0>        -0.0918
     12 C12         4.1798   -1.0721    2.8769 C.3       1 <0>        -0.0841
     13 C13         4.5658   -2.7774    0.7291 C.3       1 <0>         0.0870
     14 C14         4.0746   -6.7191   -1.4059 C.3       1 <0>         0.2023
     15 C15         3.1125   -1.0286    1.7861 C.3       1 <0>         0.0778
     16 C16         5.0972   -7.1398   -2.4665 C.3       1 <0>        -0.0746
     17 C17         4.5869   -2.5050    3.2643 C.3       1 <0>        -0.0681
     18 C18         5.9974   -8.2574   -1.9467 C.3       1 <0>        -0.0944
     19 C19         5.9882   -2.5079    3.8779 C.3       1 <0>        -0.0918
     20 C20         5.1203   -2.1076   -3.7746 C.3       1 <0>        -0.1192
     21 C21         4.5564   -1.3488   -2.5679 C.3       1 <0>        -0.0916
     22 C22         6.2766   -1.3646   -4.4322 C.3       1 <0>         0.1883
     23 C23         3.4544   -2.1251   -1.8653 C.3       1 <0>         0.1952
     24 N1          3.2389   -5.6437   -1.9056 N.pl3     1 <0>        -0.7670
     25 N2          3.5192   -1.7560    0.5781 N.am      1 <0>        -0.4509
     26 N3          9.6431   -0.4158   -3.0015 N.pl3     1 <0>        -0.8477
     27 N4          8.7440   -0.1312   -5.2072 N.pl3     1 <0>        -0.8633
     28 N5          7.3917   -1.1832   -3.5140 N.pl3     1 <0>        -0.7419
     29 N6          2.2741   -2.2179   -2.7432 N.pl3     1 <0>        -0.8860
     30 O1          1.2492   -1.0925    3.3546 O.2       1 <0>        -0.5199
     31 O2          2.0685   -0.5400   -0.7710 O.2       1 <0>        -0.6131
     32 O3         -0.1165   -3.1121   -3.0880 O.2       1 <0>        -0.6576
     33 O4          1.2896   -4.0436   -1.2226 O.2       1 <0>        -0.6482
     34 O5          1.3501   -2.6026    1.6500 O.3       1 <0>        -0.6303
     35 S1          1.1775   -3.5081   -2.5659 S.o2      1 <0>         1.5193
     36 H1          1.5799   -5.5947   -6.9271 H         1 <0>         0.1426
     37 H2          3.2711   -7.2499   -6.2157 H         1 <0>         0.1398
     38 H3          0.6792   -3.9566   -5.2858 H         1 <0>         0.1599
     39 H4          3.8515   -8.5347   -3.5798 H         1 <0>         0.0574
     40 H5          5.0968   -7.7238   -4.5461 H         1 <0>         0.0629
     41 H6          3.5311   -4.0088    2.1410 H         1 <0>         0.0614
     42 H7          5.2694   -4.2509    2.1463 H         1 <0>         0.0593
     43 H8          5.0641   -0.5305    2.5137 H         1 <0>         0.0841
     44 H9          3.8399   -0.5392    3.7741 H         1 <0>         0.0679
     45 H10         5.5312   -2.2723    0.6079 H         1 <0>         0.0826
     46 H11         4.4795   -3.5150   -0.0747 H         1 <0>         0.0383
     47 H12         3.4420   -7.5692   -1.1218 H         1 <0>         0.0556
     48 H13         4.5874   -6.3794   -0.4991 H         1 <0>         0.0415
     49 H14         2.9188    0.0160    1.5141 H         1 <0>         0.0851
     50 H15         5.7334   -6.2764   -2.7038 H         1 <0>         0.0639
     51 H16         3.9047   -2.8651    4.0450 H         1 <0>         0.0584
     52 H17         6.6935   -7.8722   -1.1957 H         1 <0>         0.0401
     53 H18         5.3996   -9.0505   -1.4878 H         1 <0>         0.0440
     54 H19         6.5793   -8.6936   -2.7641 H         1 <0>         0.0459
     55 H20         6.0310   -3.1862    4.7353 H         1 <0>         0.0456
     56 H21         6.7293   -2.8350    3.1425 H         1 <0>         0.0366
     57 H22         6.2606   -1.5045    4.2187 H         1 <0>         0.0474
     58 H23         5.4592   -3.1007   -3.4560 H         1 <0>         0.0800
     59 H24         4.3307   -2.2553   -4.5204 H         1 <0>         0.0681
     60 H25         4.1906   -0.3664   -2.8945 H         1 <0>         0.0740
     61 H26         5.3633   -1.1575   -1.8491 H         1 <0>         0.0631
     62 H27         5.9616   -0.3787   -4.7887 H         1 <0>         0.0970
     63 H28         6.6457   -1.9332   -5.2916 H         1 <0>         0.0725
     64 H29         3.7703   -3.1244   -1.5692 H         1 <0>         0.0839
     65 H30         2.7759   -5.0262   -1.2500 H         1 <0>         0.4531
     66 H31         9.5774   -0.7257   -2.0356 H         1 <0>         0.4798
     67 H32        10.5134    0.0253   -3.2898 H         1 <0>         0.4881
     68 H33         7.9967   -0.2346   -5.8893 H         1 <0>         0.4801
     69 H34         9.6064    0.3108   -5.5164 H         1 <0>         0.4806
     70 H35         7.3110   -1.5018   -2.5472 H         1 <0>         0.4689
     71 H36         1.9407   -1.3323   -3.1385 H         1 <0>         0.4505
     72 H37         0.5099   -2.9556    2.0129 H         1 <0>         0.4443
@<TRIPOS>BOND
     1    1    2 ar
     2    1    3 ar
     3    2    4 ar
     4    3    6 ar
     5    4    5 ar
     6    4   10 1
     7    5    6 ar
     8    5   24 1
     9    6   35 1
    10    7   15 1
    11    7   30 2
    12    7   34 1
    13    8   23 1
    14    8   25 am
    15    8   31 2
    16    9   26 1
    17    9   27 1
    18    9   28 1
    19   10   16 1
    20   11   13 1
    21   11   17 1
    22   12   15 1
    23   12   17 1
    24   13   25 1
    25   14   16 1
    26   14   24 1
    27   15   25 1
    28   16   18 1
    29   17   19 1
    30   20   21 1
    31   20   22 1
    32   21   23 1
    33   22   28 1
    34   23   29 1
    35   29   35 1
    36   32   35 2
    37   33   35 2
    38    1   36 1
    39    2   37 1
    40    3   38 1
    41   10   39 1
    42   10   40 1
    43   11   41 1
    44   11   42 1
    45   12   43 1
    46   12   44 1
    47   13   45 1
    48   13   46 1
    49   14   47 1
    50   14   48 1
    51   15   49 1
    52   16   50 1
    53   17   51 1
    54   18   52 1
    55   18   53 1
    56   18   54 1
    57   19   55 1
    58   19   56 1
    59   19   57 1
    60   20   58 1
    61   20   59 1
    62   21   60 1
    63   21   61 1
    64   22   62 1
    65   22   63 1
    66   23   64 1
    67   24   65 1
    68   26   66 1
    69   26   67 1
    70   27   68 1
    71   27   69 1
    72   28   70 1
    73   29   71 1
    74   34   72 1
@<TRIPOS>MOLECULE
1dwc_ligand_67
   72    74     0     0     0
SMALL
USER_CHARGES

mmff94s_NoEstat = 76.38
@<TRIPOS>ATOM
      1 C1         -0.1021   -7.1683    0.7355 C.ar      1 <0>        -0.1945
      2 C2         -0.5792   -8.1239    1.6301 C.ar      1 <0>        -0.0294
      3 C3          0.6637   -6.1037    1.2012 C.ar      1 <0>        -0.0143
      4 C4         -0.2955   -8.0178    2.9994 C.ar      1 <0>        -0.1552
      5 C5          0.5031   -6.9592    3.4747 C.ar      1 <0>         0.3076
      6 C6          0.9609   -5.9987    2.5610 C.ar      1 <0>        -0.4908
      7 C7         -1.2359   -0.6984    0.6725 C.2       1 <0>         0.5994
      8 C8          0.8654   -1.4427    3.2413 C.2       1 <0>         0.6462
      9 C9         -5.1550   -2.5406    2.8628 C.cat     1 <0>         0.6305
     10 C10        -0.8145   -9.0679    3.9520 C.3       1 <0>        -0.0319
     11 C11         1.8315    1.4466    1.1834 C.3       1 <0>        -0.0918
     12 C12         0.9831   -0.3423   -0.3484 C.3       1 <0>        -0.0841
     13 C13         1.0260    0.8397    2.3251 C.3       1 <0>         0.0870
     14 C14         0.4940   -7.9005    5.7515 C.3       1 <0>         0.2023
     15 C15         0.2462   -1.0009    0.8207 C.3       1 <0>         0.0778
     16 C16        -0.8357   -8.5817    5.4103 C.3       1 <0>        -0.0746
     17 C17         1.1635    1.1707   -0.1661 C.3       1 <0>        -0.0681
     18 C18        -2.0342   -7.6681    5.6911 C.3       1 <0>        -0.0944
     19 C19         1.9862    1.7609   -1.3098 C.3       1 <0>        -0.0918
     20 C20        -2.2331   -3.6727    3.9110 C.3       1 <0>        -0.1192
     21 C21        -1.3133   -2.4479    3.9716 C.3       1 <0>        -0.0916
     22 C22        -3.5726   -3.4201    4.5920 C.3       1 <0>         0.1883
     23 C23        -0.0078   -2.6730    3.2260 C.3       1 <0>         0.1952
     24 N1          0.7943   -6.8242    4.8264 N.pl3     1 <0>        -0.7670
     25 N2          0.7744   -0.5925    2.1333 N.am      1 <0>        -0.4509
     26 N3         -5.8450   -1.4865    2.2730 N.pl3     1 <0>        -0.8477
     27 N4         -5.3158   -3.8250    2.3544 N.pl3     1 <0>        -0.8633
     28 N5         -4.3046   -2.3352    3.9546 N.pl3     1 <0>        -0.7419
     29 N6          0.7961   -3.6905    3.9267 N.pl3     1 <0>        -0.8860
     30 O1         -1.8192    0.2321    1.2084 O.2       1 <0>        -0.5199
     31 O2          1.6103   -1.2468    4.2054 O.2       1 <0>        -0.6131
     32 O3          2.9489   -5.1033    3.9827 O.2       1 <0>        -0.6576
     33 O4          2.3147   -3.9087    1.8626 O.2       1 <0>        -0.6482
     34 O5         -1.8312   -1.6071   -0.1380 O.3       1 <0>        -0.6303
     35 S1          1.9328   -4.6215    3.0666 S.o2      1 <0>         1.5193
     36 H1         -0.3304   -7.2521   -0.3236 H         1 <0>         0.1426
     37 H2         -1.1793   -8.9508    1.2577 H         1 <0>         0.1398
     38 H3          1.0358   -5.3499    0.5144 H         1 <0>         0.1599
     39 H4         -1.8224   -9.3834    3.6556 H         1 <0>         0.0574
     40 H5         -0.1575   -9.9435    3.8733 H         1 <0>         0.0629
     41 H6          1.9320    2.5271    1.3399 H         1 <0>         0.0614
     42 H7          2.8448    1.0248    1.1881 H         1 <0>         0.0593
     43 H8          1.9753   -0.8057   -0.4365 H         1 <0>         0.0841
     44 H9          0.4607   -0.5403   -1.2930 H         1 <0>         0.0679
     45 H10         1.5496    1.0140    3.2709 H         1 <0>         0.0826
     46 H11         0.0484    1.3304    2.4051 H         1 <0>         0.0383
     47 H12         0.4682   -7.5028    6.7722 H         1 <0>         0.0556
     48 H13         1.3063   -8.6368    5.7145 H         1 <0>         0.0415
     49 H14         0.3330   -2.0869    0.7143 H         1 <0>         0.0851
     50 H15        -0.9553   -9.4568    6.0608 H         1 <0>         0.0639
     51 H16         0.1795    1.6553   -0.1825 H         1 <0>         0.0584
     52 H17        -2.5659   -7.4356    4.7636 H         1 <0>         0.0401
     53 H18        -2.7347   -8.1530    6.3776 H         1 <0>         0.0440
     54 H19        -1.7034   -6.7283    6.1433 H         1 <0>         0.0459
     55 H20         1.9407    1.1129   -2.1902 H         1 <0>         0.0456
     56 H21         1.6048    2.7479   -1.5883 H         1 <0>         0.0366
     57 H22         3.0342    1.8673   -1.0143 H         1 <0>         0.0474
     58 H23        -2.4032   -3.9506    2.8639 H         1 <0>         0.0800
     59 H24        -1.7473   -4.5245    4.4007 H         1 <0>         0.0681
     60 H25        -1.1204   -2.1894    5.0211 H         1 <0>         0.0740
     61 H26        -1.8263   -1.5854    3.5275 H         1 <0>         0.0631
     62 H27        -3.4379   -3.1690    5.6489 H         1 <0>         0.0970
     63 H28        -4.1962   -4.3179    4.5344 H         1 <0>         0.0725
     64 H29        -0.1638   -2.9774    2.1921 H         1 <0>         0.0839
     65 H30         1.4333   -6.0909    5.1082 H         1 <0>         0.4531
     66 H31        -5.7600   -0.5320    2.6119 H         1 <0>         0.4798
     67 H32        -6.4620   -1.6448    1.4797 H         1 <0>         0.4881
     68 H33        -4.8265   -4.6183    2.7616 H         1 <0>         0.4801
     69 H34        -5.9263   -4.0045    1.5608 H         1 <0>         0.4806
     70 H35        -4.2070   -1.3812    4.3054 H         1 <0>         0.4689
     71 H36         0.9382   -3.5340    4.9302 H         1 <0>         0.4505
     72 H37        -2.7902   -1.4300   -0.2450 H         1 <0>         0.4443
@<TRIPOS>BOND
     1    1    2 ar
     2    1    3 ar
     3    2    4 ar
     4    3    6 ar
     5    4    5 ar
     6    4   10 1
     7    5    6 ar
     8    5   24 1
     9    6   35 1
    10    7   15 1
    11    7   30 2
    12    7   34 1
    13    8   23 1
    14    8   25 am
    15    8   31 2
    16    9   26 1
    17    9   27 1
    18    9   28 1
    19   10   16 1
    20   11   13 1
    21   11   17 1
    22   12   15 1
    23   12   17 1
    24   13   25 1
    25   14   16 1
    26   14   24 1
    27   15   25 1
    28   16   18 1
    29   17   19 1
    30   20   21 1
    31   20   22 1
    32   21   23 1
    33   22   28 1
    34   23   29 1
    35   29   35 1
    36   32   35 2
    37   33   35 2
    38    1   36 1
    39    2   37 1
    40    3   38 1
    41   10   39 1
    42   10   40 1
    43   11   41 1
    44   11   42 1
    45   12   43 1
    46   12   44 1
    47   13   45 1
    48   13   46 1
    49   14   47 1
    50   14   48 1
    51   15   49 1
    52   16   50 1
    53   17   51 1
    54   18   52 1
    55   18   53 1
    56   18   54 1
    57   19   55 1
    58   19   56 1
    59   19   57 1
    60   20   58 1
    61   20   59 1
    62   21   60 1
    63   21   61 1
    64   22   62 1
    65   22   63 1
    66   23   64 1
    67   24   65 1
    68   26   66 1
    69   26   67 1
    70   27   68 1
    71   27   69 1
    72   28   70 1
    73   29   71 1
    74   34   72 1
@<TRIPOS>MOLECULE
1dwc_ligand_68
   72    74     0     0     0
SMALL
USER_CHARGES

mmff94s_NoEstat = 76.40
@<TRIPOS>ATOM
      1 C1          3.3055   -6.8449   -1.9341 C.ar      1 <0>        -0.1945
      2 C2          3.8095   -7.1580   -3.1947 C.ar      1 <0>        -0.0294
      3 C3          2.5030   -5.7201   -1.7675 C.ar      1 <0>        -0.0143
      4 C4          3.5095   -6.3479   -4.2992 C.ar      1 <0>        -0.1552
      5 C5          2.7217   -5.1914   -4.1335 C.ar      1 <0>         0.3076
      6 C6          2.2111   -4.9017   -2.8599 C.ar      1 <0>        -0.4908
      7 C7          1.8102   -1.5505    2.3702 C.2       1 <0>         0.5994
      8 C8          2.9466   -1.3973   -0.6457 C.2       1 <0>         0.6462
      9 C9          8.3972   -2.1425   -3.3525 C.cat     1 <0>         0.6305
     10 C10         4.0704   -6.6982   -5.6567 C.3       1 <0>        -0.0319
     11 C11         4.4920   -3.4807    2.0801 C.3       1 <0>        -0.0918
     12 C12         4.1798   -1.0721    2.8769 C.3       1 <0>        -0.0841
     13 C13         4.5658   -2.7774    0.7291 C.3       1 <0>         0.0870
     14 C14         3.0733   -4.5524   -6.4856 C.3       1 <0>         0.2023
     15 C15         3.1125   -1.0286    1.7861 C.3       1 <0>         0.0778
     16 C16         3.2586   -6.0435   -6.7854 C.3       1 <0>        -0.0746
     17 C17         4.5869   -2.5050    3.2643 C.3       1 <0>        -0.0681
     18 C18         3.9400   -6.2504   -8.1353 C.3       1 <0>        -0.0944
     19 C19         5.9882   -2.5079    3.8779 C.3       1 <0>        -0.0918
     20 C20         5.1203   -2.1076   -3.7746 C.3       1 <0>        -0.1192
     21 C21         4.5564   -1.3488   -2.5679 C.3       1 <0>        -0.0916
     22 C22         6.2766   -1.3646   -4.4322 C.3       1 <0>         0.1883
     23 C23         3.4544   -2.1251   -1.8653 C.3       1 <0>         0.1952
     24 N1          2.4075   -4.3705   -5.2096 N.pl3     1 <0>        -0.7670
     25 N2          3.5192   -1.7560    0.5781 N.am      1 <0>        -0.4509
     26 N3          9.4536   -1.9437   -2.4696 N.pl3     1 <0>        -0.8477
     27 N4          8.3419   -3.3208   -4.0890 N.pl3     1 <0>        -0.8633
     28 N5          7.3917   -1.1832   -3.5140 N.pl3     1 <0>        -0.7419
     29 N6          2.2741   -2.2179   -2.7432 N.pl3     1 <0>        -0.8860
     30 O1          1.2492   -1.0925    3.3546 O.2       1 <0>        -0.5199
     31 O2          2.0685   -0.5400   -0.7710 O.2       1 <0>        -0.6131
     32 O3          0.1927   -3.4494   -3.6292 O.2       1 <0>        -0.6576
     33 O4          0.7527   -3.5815   -1.1810 O.2       1 <0>        -0.6482
     34 O5          1.3501   -2.6026    1.6500 O.3       1 <0>        -0.6303
     35 S1          1.1775   -3.5081   -2.5659 S.o2      1 <0>         1.5193
     36 H1          3.5358   -7.4800   -1.0832 H         1 <0>         0.1426
     37 H2          4.4333   -8.0405   -3.3162 H         1 <0>         0.1398
     38 H3          2.0998   -5.4697   -0.7914 H         1 <0>         0.1599
     39 H4          5.1147   -6.3633   -5.6949 H         1 <0>         0.0574
     40 H5          4.0627   -7.7864   -5.7947 H         1 <0>         0.0629
     41 H6          3.5311   -4.0088    2.1410 H         1 <0>         0.0614
     42 H7          5.2694   -4.2509    2.1463 H         1 <0>         0.0593
     43 H8          5.0641   -0.5305    2.5137 H         1 <0>         0.0841
     44 H9          3.8399   -0.5392    3.7741 H         1 <0>         0.0679
     45 H10         5.5312   -2.2723    0.6079 H         1 <0>         0.0826
     46 H11         4.4795   -3.5150   -0.0747 H         1 <0>         0.0383
     47 H12         4.0431   -4.0398   -6.4660 H         1 <0>         0.0556
     48 H13         2.4729   -4.0799   -7.2710 H         1 <0>         0.0415
     49 H14         2.9188    0.0160    1.5141 H         1 <0>         0.0851
     50 H15         2.2693   -6.5190   -6.8298 H         1 <0>         0.0639
     51 H16         3.9047   -2.8651    4.0450 H         1 <0>         0.0584
     52 H17         3.2554   -6.0057   -8.9529 H         1 <0>         0.0401
     53 H18         4.8233   -5.6107   -8.2222 H         1 <0>         0.0440
     54 H19         4.2559   -7.2916   -8.2507 H         1 <0>         0.0459
     55 H20         6.0310   -3.1862    4.7353 H         1 <0>         0.0456
     56 H21         6.7293   -2.8350    3.1425 H         1 <0>         0.0366
     57 H22         6.2606   -1.5045    4.2187 H         1 <0>         0.0474
     58 H23         5.4592   -3.1007   -3.4560 H         1 <0>         0.0800
     59 H24         4.3307   -2.2553   -4.5204 H         1 <0>         0.0681
     60 H25         4.1906   -0.3664   -2.8945 H         1 <0>         0.0740
     61 H26         5.3633   -1.1575   -1.8491 H         1 <0>         0.0631
     62 H27         5.9616   -0.3787   -4.7887 H         1 <0>         0.0970
     63 H28         6.6457   -1.9332   -5.2916 H         1 <0>         0.0725
     64 H29         3.7703   -3.1244   -1.5692 H         1 <0>         0.0839
     65 H30         1.9026   -3.5116   -5.0286 H         1 <0>         0.4531
     66 H31         9.5364   -1.0976   -1.9123 H         1 <0>         0.4798
     67 H32        10.1811   -2.6463   -2.3587 H         1 <0>         0.4881
     68 H33         7.5837   -3.4984   -4.7434 H         1 <0>         0.4801
     69 H34         9.0579   -4.0367   -3.9917 H         1 <0>         0.4806
     70 H35         7.4597   -0.3285   -2.9594 H         1 <0>         0.4689
     71 H36         1.9407   -1.3323   -3.1385 H         1 <0>         0.4505
     72 H37         0.5099   -2.9556    2.0129 H         1 <0>         0.4443
@<TRIPOS>BOND
     1    1    2 ar
     2    1    3 ar
     3    2    4 ar
     4    3    6 ar
     5    4    5 ar
     6    4   10 1
     7    5    6 ar
     8    5   24 1
     9    6   35 1
    10    7   15 1
    11    7   30 2
    12    7   34 1
    13    8   23 1
    14    8   25 am
    15    8   31 2
    16    9   26 1
    17    9   27 1
    18    9   28 1
    19   10   16 1
    20   11   13 1
    21   11   17 1
    22   12   15 1
    23   12   17 1
    24   13   25 1
    25   14   16 1
    26   14   24 1
    27   15   25 1
    28   16   18 1
    29   17   19 1
    30   20   21 1
    31   20   22 1
    32   21   23 1
    33   22   28 1
    34   23   29 1
    35   29   35 1
    36   32   35 2
    37   33   35 2
    38    1   36 1
    39    2   37 1
    40    3   38 1
    41   10   39 1
    42   10   40 1
    43   11   41 1
    44   11   42 1
    45   12   43 1
    46   12   44 1
    47   13   45 1
    48   13   46 1
    49   14   47 1
    50   14   48 1
    51   15   49 1
    52   16   50 1
    53   17   51 1
    54   18   52 1
    55   18   53 1
    56   18   54 1
    57   19   55 1
    58   19   56 1
    59   19   57 1
    60   20   58 1
    61   20   59 1
    62   21   60 1
    63   21   61 1
    64   22   62 1
    65   22   63 1
    66   23   64 1
    67   24   65 1
    68   26   66 1
    69   26   67 1
    70   27   68 1
    71   27   69 1
    72   28   70 1
    73   29   71 1
    74   34   72 1
@<TRIPOS>MOLECULE
1dwc_ligand_69
   72    74     0     0     0
SMALL
USER_CHARGES

mmff94s_NoEstat = 76.46
@<TRIPOS>ATOM
      1 C1          4.7857   -3.3854   -6.6747 C.ar      1 <0>        -0.1945
      2 C2          4.2835   -2.4050   -7.5279 C.ar      1 <0>        -0.0294
      3 C3          4.0861   -3.7255   -5.5206 C.ar      1 <0>        -0.0143
      4 C4          3.0736   -1.7606   -7.2327 C.ar      1 <0>        -0.1552
      5 C5          2.3740   -2.0785   -6.0516 C.ar      1 <0>         0.3076
      6 C6          2.8878   -3.0788   -5.2136 C.ar      1 <0>        -0.4908
      7 C7          0.5484   -0.8946    1.4535 C.2       1 <0>         0.5994
      8 C8          2.9466   -1.3973   -0.6457 C.2       1 <0>         0.6462
      9 C9          8.2839   -0.2639   -4.3456 C.cat     1 <0>         0.6305
     10 C10         2.5481   -0.6954   -8.1649 C.3       1 <0>        -0.0319
     11 C11         1.0071   -4.1523    1.0299 C.3       1 <0>        -0.0918
     12 C12         1.8830   -2.5004    2.7729 C.3       1 <0>        -0.0841
     13 C13         2.2320   -3.6460    0.2757 C.3       1 <0>         0.0870
     14 C14         0.7263   -0.3013   -6.4881 C.3       1 <0>         0.2023
     15 C15         1.9200   -1.5343    1.5913 C.3       1 <0>         0.0778
     16 C16         1.0380   -0.4809   -7.9775 C.3       1 <0>        -0.0746
     17 C17         1.0079   -3.7392    2.5107 C.3       1 <0>        -0.0681
     18 C18         0.5551    0.7196   -8.7869 C.3       1 <0>        -0.0944
     19 C19         1.4463   -4.8953    3.4115 C.3       1 <0>        -0.0918
     20 C20         5.7415   -1.0578   -1.6401 C.3       1 <0>        -0.1192
     21 C21         4.5564   -1.3488   -2.5679 C.3       1 <0>        -0.0916
     22 C22         6.8115   -0.2136   -2.3213 C.3       1 <0>         0.1883
     23 C23         3.4544   -2.1251   -1.8653 C.3       1 <0>         0.1952
     24 N1          1.1726   -1.4571   -5.7336 N.pl3     1 <0>        -0.7670
     25 N2          2.3654   -2.1840    0.3531 N.am      1 <0>        -0.4509
     26 N3          8.7668   -0.9088   -5.4795 N.pl3     1 <0>        -0.8477
     27 N4          8.7590    1.0053   -4.0334 N.pl3     1 <0>        -0.8633
     28 N5          7.3321   -0.8648   -3.5148 N.pl3     1 <0>        -0.7419
     29 N6          2.2741   -2.2179   -2.7432 N.pl3     1 <0>        -0.8860
     30 O1         -0.0257   -0.2688    2.3322 O.2       1 <0>        -0.5199
     31 O2          3.0580   -0.1705   -0.5795 O.2       1 <0>        -0.6131
     32 O3          0.6499   -3.7277   -4.0534 O.2       1 <0>        -0.6576
     33 O4          2.8074   -4.6931   -3.1946 O.2       1 <0>        -0.6482
     34 O5          0.0400   -1.1141    0.2163 O.3       1 <0>        -0.6303
     35 S1          2.0591   -3.5786   -3.7438 S.o2      1 <0>         1.5193
     36 H1          5.7203   -3.8862   -6.9120 H         1 <0>         0.1426
     37 H2          4.8354   -2.1479   -8.4289 H         1 <0>         0.1398
     38 H3          4.4644   -4.4919   -4.8517 H         1 <0>         0.1599
     39 H4          3.0928    0.2363   -7.9655 H         1 <0>         0.0574
     40 H5          2.7429   -0.9806   -9.2061 H         1 <0>         0.0629
     41 H6          0.1116   -3.7326    0.5525 H         1 <0>         0.0614
     42 H7          0.9264   -5.2409    0.9288 H         1 <0>         0.0593
     43 H8          2.9117   -2.8226    2.9853 H         1 <0>         0.0841
     44 H9          1.5267   -1.9929    3.6785 H         1 <0>         0.0679
     45 H10         3.1493   -4.0774    0.6933 H         1 <0>         0.0826
     46 H11         2.1726   -3.9558   -0.7722 H         1 <0>         0.0383
     47 H12         1.2164    0.5993   -6.0977 H         1 <0>         0.0556
     48 H13        -0.3518   -0.1738   -6.3395 H         1 <0>         0.0415
     49 H14         2.6095   -0.7128    1.8202 H         1 <0>         0.0851
     50 H15         0.5073   -1.3704   -8.3432 H         1 <0>         0.0639
     51 H16        -0.0273   -3.5034    2.7887 H         1 <0>         0.0584
     52 H17        -0.5372    0.7259   -8.8506 H         1 <0>         0.0401
     53 H18         0.8784    1.6541   -8.3188 H         1 <0>         0.0440
     54 H19         0.9591    0.6854   -9.8032 H         1 <0>         0.0459
     55 H20         0.5753   -5.4296    3.8024 H         1 <0>         0.0456
     56 H21         2.0638   -5.6051    2.8530 H         1 <0>         0.0366
     57 H22         2.0303   -4.5225    4.2583 H         1 <0>         0.0474
     58 H23         5.3842   -0.5386   -0.7426 H         1 <0>         0.0800
     59 H24         6.1956   -2.0004   -1.3135 H         1 <0>         0.0681
     60 H25         4.9119   -1.8947   -3.4517 H         1 <0>         0.0740
     61 H26         4.1396   -0.4017   -2.9334 H         1 <0>         0.0631
     62 H27         7.6493   -0.0157   -1.6451 H         1 <0>         0.0970
     63 H28         6.3893    0.7487   -2.6278 H         1 <0>         0.0725
     64 H29         3.7703   -3.1244   -1.5692 H         1 <0>         0.0839
     65 H30         0.7458   -1.6637   -4.8389 H         1 <0>         0.4531
     66 H31         8.4501   -1.8373   -5.7457 H         1 <0>         0.4798
     67 H32         9.4595   -0.4648   -6.0779 H         1 <0>         0.4881
     68 H33         8.4274    1.5051   -3.2120 H         1 <0>         0.4801
     69 H34         9.4501    1.4677   -4.6194 H         1 <0>         0.4806
     70 H35         7.0024   -1.7969   -3.7700 H         1 <0>         0.4689
     71 H36         1.4502   -1.6870   -2.4414 H         1 <0>         0.4505
     72 H37        -0.8473   -0.7100    0.1079 H         1 <0>         0.4443
@<TRIPOS>BOND
     1    1    2 ar
     2    1    3 ar
     3    2    4 ar
     4    3    6 ar
     5    4    5 ar
     6    4   10 1
     7    5    6 ar
     8    5   24 1
     9    6   35 1
    10    7   15 1
    11    7   30 2
    12    7   34 1
    13    8   23 1
    14    8   25 am
    15    8   31 2
    16    9   26 1
    17    9   27 1
    18    9   28 1
    19   10   16 1
    20   11   13 1
    21   11   17 1
    22   12   15 1
    23   12   17 1
    24   13   25 1
    25   14   16 1
    26   14   24 1
    27   15   25 1
    28   16   18 1
    29   17   19 1
    30   20   21 1
    31   20   22 1
    32   21   23 1
    33   22   28 1
    34   23   29 1
    35   29   35 1
    36   32   35 2
    37   33   35 2
    38    1   36 1
    39    2   37 1
    40    3   38 1
    41   10   39 1
    42   10   40 1
    43   11   41 1
    44   11   42 1
    45   12   43 1
    46   12   44 1
    47   13   45 1
    48   13   46 1
    49   14   47 1
    50   14   48 1
    51   15   49 1
    52   16   50 1
    53   17   51 1
    54   18   52 1
    55   18   53 1
    56   18   54 1
    57   19   55 1
    58   19   56 1
    59   19   57 1
    60   20   58 1
    61   20   59 1
    62   21   60 1
    63   21   61 1
    64   22   62 1
    65   22   63 1
    66   23   64 1
    67   24   65 1
    68   26   66 1
    69   26   67 1
    70   27   68 1
    71   27   69 1
    72   28   70 1
    73   29   71 1
    74   34   72 1
@<TRIPOS>MOLECULE
1dwc_ligand_70
   72    74     0     0     0
SMALL
USER_CHARGES

mmff94s_NoEstat = 76.46
@<TRIPOS>ATOM
      1 C1         -3.3475   -6.3503    1.8791 C.ar      1 <0>        -0.1945
      2 C2         -3.9958   -5.9344    0.7180 C.ar      1 <0>        -0.0294
      3 C3         -2.9512   -5.4113    2.8268 C.ar      1 <0>        -0.0143
      4 C4         -4.2554   -4.5738    0.4999 C.ar      1 <0>        -0.1552
      5 C5         -3.8316   -3.6142    1.4408 C.ar      1 <0>         0.3076
      6 C6         -3.1944   -4.0540    2.6102 C.ar      1 <0>        -0.4908
      7 C7          2.0323   -3.0842    5.9821 C.2       1 <0>         0.5994
      8 C8          0.8654   -1.4427    3.2413 C.2       1 <0>         0.6462
      9 C9          2.1577   -4.6267   -1.7165 C.cat     1 <0>         0.6305
     10 C10        -4.9524   -4.1403   -0.7675 C.3       1 <0>        -0.0319
     11 C11         3.0911    0.4998    5.4298 C.3       1 <0>        -0.0918
     12 C12         1.5534   -0.8369    6.8842 C.3       1 <0>        -0.0841
     13 C13         2.8818   -0.5022    4.3015 C.3       1 <0>         0.0870
     14 C14        -4.5641   -1.7769   -0.0261 C.3       1 <0>         0.2023
     15 C15         1.2754   -1.7924    5.7207 C.3       1 <0>         0.0778
     16 C16        -5.5921   -2.7519   -0.6095 C.3       1 <0>        -0.0746
     17 C17         2.9339   -0.1724    6.7962 C.3       1 <0>        -0.0681
     18 C18        -6.1301   -2.2464   -1.9453 C.3       1 <0>        -0.0944
     19 C19         3.1216    0.8403    7.9242 C.3       1 <0>        -0.0918
     20 C20         1.7689   -4.0083    2.0091 C.3       1 <0>        -0.1192
     21 C21         0.3004   -3.5693    2.0376 C.3       1 <0>        -0.0916
     22 C22         2.0958   -4.8429    0.7769 C.3       1 <0>         0.1883
     23 C23        -0.0078   -2.6730    3.2260 C.3       1 <0>         0.1952
     24 N1         -4.0757   -2.2595    1.2518 N.pl3     1 <0>        -0.7670
     25 N2          1.5999   -1.2067    4.4091 N.am      1 <0>        -0.4509
     26 N3          1.9356   -3.8927   -2.8771 N.pl3     1 <0>        -0.8477
     27 N4          2.6719   -5.9149   -1.8171 N.pl3     1 <0>        -0.8633
     28 N5          1.8751   -4.0962   -0.4532 N.pl3     1 <0>        -0.7419
     29 N6         -1.3760   -2.1385    3.1042 N.pl3     1 <0>        -0.8860
     30 O1          3.1450   -3.3455    5.5497 O.2       1 <0>        -0.5199
     31 O2          0.8891   -0.7105    2.2483 O.2       1 <0>        -0.6131
     32 O3         -3.7495   -1.9880    4.0928 O.2       1 <0>        -0.6576
     33 O4         -2.1627   -3.7355    4.9602 O.2       1 <0>        -0.6482
     34 O5          1.3022   -3.9170    6.7635 O.3       1 <0>        -0.6303
     35 S1         -2.6746   -2.9347    3.8647 S.o2      1 <0>         1.5193
     36 H1         -3.1550   -7.4065    2.0458 H         1 <0>         0.1426
     37 H2         -4.3045   -6.6753   -0.0157 H         1 <0>         0.1398
     38 H3         -2.4509   -5.7242    3.7377 H         1 <0>         0.1599
     39 H4         -4.2148   -4.1296   -1.5800 H         1 <0>         0.0574
     40 H5         -5.7315   -4.8656   -1.0323 H         1 <0>         0.0629
     41 H6          4.0885    0.9467    5.3426 H         1 <0>         0.0614
     42 H7          2.3630    1.3153    5.3324 H         1 <0>         0.0593
     43 H8          0.7851   -0.0517    6.8776 H         1 <0>         0.0841
     44 H9          1.4567   -1.3607    7.8437 H         1 <0>         0.0679
     45 H10         2.9560    0.0148    3.3392 H         1 <0>         0.0826
     46 H11         3.6704   -1.2643    4.3172 H         1 <0>         0.0383
     47 H12        -3.7191   -1.6505   -0.7142 H         1 <0>         0.0556
     48 H13        -5.0170   -0.7893    0.1158 H         1 <0>         0.0415
     49 H14         0.2160   -2.0663    5.7460 H         1 <0>         0.0851
     50 H15        -6.4375   -2.8304    0.0874 H         1 <0>         0.0639
     51 H16         3.7104   -0.9392    6.9078 H         1 <0>         0.0584
     52 H17        -6.7909   -1.3877   -1.7933 H         1 <0>         0.0401
     53 H18        -5.3086   -1.9377   -2.5987 H         1 <0>         0.0440
     54 H19        -6.6976   -3.0320   -2.4531 H         1 <0>         0.0459
     55 H20         2.2527    0.8404    8.5891 H         1 <0>         0.0456
     56 H21         4.0086    0.5961    8.5164 H         1 <0>         0.0366
     57 H22         3.2450    1.8489    7.5186 H         1 <0>         0.0474
     58 H23         2.4156   -3.1229    2.0318 H         1 <0>         0.0800
     59 H24         1.9949   -4.6013    2.9028 H         1 <0>         0.0681
     60 H25        -0.3448   -4.4577    2.0448 H         1 <0>         0.0740
     61 H26         0.0666   -3.0218    1.1158 H         1 <0>         0.0631
     62 H27         1.4860   -5.7513    0.7413 H         1 <0>         0.0970
     63 H28         3.1484   -5.1425    0.7970 H         1 <0>         0.0725
     64 H29         0.1003   -3.1895    4.1787 H         1 <0>         0.0839
     65 H30        -3.6865   -1.6028    1.9171 H         1 <0>         0.4531
     66 H31         1.5595   -2.9487   -2.8523 H         1 <0>         0.4798
     67 H32         2.1433   -4.2863   -3.7920 H         1 <0>         0.4881
     68 H33         2.8463   -6.4791   -0.9889 H         1 <0>         0.4801
     69 H34         2.8881   -6.3264   -2.7218 H         1 <0>         0.4806
     70 H35         1.4985   -3.1480   -0.4116 H         1 <0>         0.4689
     71 H36        -1.4476   -1.1318    2.9219 H         1 <0>         0.4505
     72 H37         1.7734   -4.7586    6.9424 H         1 <0>         0.4443
@<TRIPOS>BOND
     1    1    2 ar
     2    1    3 ar
     3    2    4 ar
     4    3    6 ar
     5    4    5 ar
     6    4   10 1
     7    5    6 ar
     8    5   24 1
     9    6   35 1
    10    7   15 1
    11    7   30 2
    12    7   34 1
    13    8   23 1
    14    8   25 am
    15    8   31 2
    16    9   26 1
    17    9   27 1
    18    9   28 1
    19   10   16 1
    20   11   13 1
    21   11   17 1
    22   12   15 1
    23   12   17 1
    24   13   25 1
    25   14   16 1
    26   14   24 1
    27   15   25 1
    28   16   18 1
    29   17   19 1
    30   20   21 1
    31   20   22 1
    32   21   23 1
    33   22   28 1
    34   23   29 1
    35   29   35 1
    36   32   35 2
    37   33   35 2
    38    1   36 1
    39    2   37 1
    40    3   38 1
    41   10   39 1
    42   10   40 1
    43   11   41 1
    44   11   42 1
    45   12   43 1
    46   12   44 1
    47   13   45 1
    48   13   46 1
    49   14   47 1
    50   14   48 1
    51   15   49 1
    52   16   50 1
    53   17   51 1
    54   18   52 1
    55   18   53 1
    56   18   54 1
    57   19   55 1
    58   19   56 1
    59   19   57 1
    60   20   58 1
    61   20   59 1
    62   21   60 1
    63   21   61 1
    64   22   62 1
    65   22   63 1
    66   23   64 1
    67   24   65 1
    68   26   66 1
    69   26   67 1
    70   27   68 1
    71   27   69 1
    72   28   70 1
    73   29   71 1
    74   34   72 1
@<TRIPOS>MOLECULE
1dwc_ligand_71
   72    74     0     0     0
SMALL
USER_CHARGES

mmff94s_NoEstat = 76.54
@<TRIPOS>ATOM
      1 C1         -0.1021   -7.1683    0.7355 C.ar      1 <0>        -0.1945
      2 C2         -0.5792   -8.1239    1.6301 C.ar      1 <0>        -0.0294
      3 C3          0.6637   -6.1037    1.2012 C.ar      1 <0>        -0.0143
      4 C4         -0.2955   -8.0178    2.9994 C.ar      1 <0>        -0.1552
      5 C5          0.5031   -6.9592    3.4747 C.ar      1 <0>         0.3076
      6 C6          0.9609   -5.9987    2.5610 C.ar      1 <0>        -0.4908
      7 C7         -0.2549    0.4306    0.6330 C.2       1 <0>         0.5994
      8 C8          0.8654   -1.4427    3.2413 C.2       1 <0>         0.6462
      9 C9         -5.5866   -1.9509    4.3621 C.cat     1 <0>         0.6305
     10 C10        -0.8145   -9.0679    3.9520 C.3       1 <0>        -0.0319
     11 C11         3.3665   -0.6443    0.6676 C.3       1 <0>        -0.0918
     12 C12         1.2181   -1.2005   -0.4907 C.3       1 <0>        -0.0841
     13 C13         2.5847   -0.2704    1.9206 C.3       1 <0>         0.0870
     14 C14         0.4940   -7.9005    5.7515 C.3       1 <0>         0.2023
     15 C15         0.4427   -0.9096    0.7969 C.3       1 <0>         0.0778
     16 C16        -0.8357   -8.5817    5.4103 C.3       1 <0>        -0.0746
     17 C17         2.5288   -0.4088   -0.5919 C.3       1 <0>        -0.0681
     18 C18        -2.0342   -7.6681    5.6911 C.3       1 <0>        -0.0944
     19 C19         3.3078   -0.8065   -1.8442 C.3       1 <0>        -0.0918
     20 C20        -2.2331   -3.6727    3.9110 C.3       1 <0>        -0.1192
     21 C21        -1.3133   -2.4479    3.9716 C.3       1 <0>        -0.0916
     22 C22        -3.5726   -3.4201    4.5920 C.3       1 <0>         0.1883
     23 C23        -0.0078   -2.6730    3.2260 C.3       1 <0>         0.1952
     24 N1          0.7943   -6.8242    4.8264 N.pl3     1 <0>        -0.7670
     25 N2          1.2915   -0.9578    1.9994 N.am      1 <0>        -0.4509
     26 N3         -6.2639   -0.9089    3.7373 N.pl3     1 <0>        -0.8477
     27 N4         -6.1992   -2.6234    5.4140 N.pl3     1 <0>        -0.8633
     28 N5         -4.3046   -2.3352    3.9546 N.pl3     1 <0>        -0.7419
     29 N6          0.7961   -3.6905    3.9267 N.pl3     1 <0>        -0.8860
     30 O1         -0.5780    0.9276   -0.4357 O.2       1 <0>        -0.5199
     31 O2          1.1650   -0.9321    4.3240 O.2       1 <0>        -0.6131
     32 O3          2.9489   -5.1033    3.9827 O.2       1 <0>        -0.6576
     33 O4          2.3147   -3.9087    1.8626 O.2       1 <0>        -0.6482
     34 O5         -0.4710    1.0086    1.8398 O.3       1 <0>        -0.6303
     35 S1          1.9328   -4.6215    3.0666 S.o2      1 <0>         1.5193
     36 H1         -0.3304   -7.2521   -0.3236 H         1 <0>         0.1426
     37 H2         -1.1793   -8.9508    1.2577 H         1 <0>         0.1398
     38 H3          1.0358   -5.3499    0.5144 H         1 <0>         0.1599
     39 H4         -1.8224   -9.3834    3.6556 H         1 <0>         0.0574
     40 H5         -0.1575   -9.9435    3.8733 H         1 <0>         0.0629
     41 H6          4.2893   -0.0541    0.6219 H         1 <0>         0.0614
     42 H7          3.6617   -1.6999    0.7239 H         1 <0>         0.0593
     43 H8          1.4535   -2.2733   -0.5175 H         1 <0>         0.0841
     44 H9          0.5944   -0.9953   -1.3701 H         1 <0>         0.0679
     45 H10         3.1909   -0.4908    2.8053 H         1 <0>         0.0826
     46 H11         2.3782    0.8066    1.9340 H         1 <0>         0.0383
     47 H12         0.4682   -7.5028    6.7722 H         1 <0>         0.0556
     48 H13         1.3063   -8.6368    5.7145 H         1 <0>         0.0415
     49 H14        -0.3616   -1.6465    0.8882 H         1 <0>         0.0851
     50 H15        -0.9553   -9.4568    6.0608 H         1 <0>         0.0639
     51 H16         2.2982    0.6607   -0.6719 H         1 <0>         0.0584
     52 H17        -2.5659   -7.4356    4.7636 H         1 <0>         0.0401
     53 H18        -2.7347   -8.1530    6.3776 H         1 <0>         0.0440
     54 H19        -1.7034   -6.7283    6.1433 H         1 <0>         0.0459
     55 H20         2.6382   -1.2449   -2.5902 H         1 <0>         0.0456
     56 H21         3.7937    0.0674   -2.2885 H         1 <0>         0.0366
     57 H22         4.0794   -1.5424   -1.5992 H         1 <0>         0.0474
     58 H23        -2.4032   -3.9506    2.8639 H         1 <0>         0.0800
     59 H24        -1.7473   -4.5245    4.4007 H         1 <0>         0.0681
     60 H25        -1.1204   -2.1894    5.0211 H         1 <0>         0.0740
     61 H26        -1.8263   -1.5854    3.5275 H         1 <0>         0.0631
     62 H27        -3.4379   -3.1690    5.6489 H         1 <0>         0.0970
     63 H28        -4.1962   -4.3179    4.5344 H         1 <0>         0.0725
     64 H29        -0.1638   -2.9774    2.1921 H         1 <0>         0.0839
     65 H30         1.4333   -6.0909    5.1082 H         1 <0>         0.4531
     66 H31        -5.8550   -0.3880    2.9661 H         1 <0>         0.4798
     67 H32        -7.1958   -0.6354    4.0404 H         1 <0>         0.4881
     68 H33        -5.7325   -3.3897    5.8930 H         1 <0>         0.4801
     69 H34        -7.1311   -2.3670    5.7313 H         1 <0>         0.4806
     70 H35        -3.8810   -1.8227    3.1796 H         1 <0>         0.4689
     71 H36         0.9382   -3.5340    4.9302 H         1 <0>         0.4505
     72 H37        -0.9194    1.8770    1.7552 H         1 <0>         0.4443
@<TRIPOS>BOND
     1    1    2 ar
     2    1    3 ar
     3    2    4 ar
     4    3    6 ar
     5    4    5 ar
     6    4   10 1
     7    5    6 ar
     8    5   24 1
     9    6   35 1
    10    7   15 1
    11    7   30 2
    12    7   34 1
    13    8   23 1
    14    8   25 am
    15    8   31 2
    16    9   26 1
    17    9   27 1
    18    9   28 1
    19   10   16 1
    20   11   13 1
    21   11   17 1
    22   12   15 1
    23   12   17 1
    24   13   25 1
    25   14   16 1
    26   14   24 1
    27   15   25 1
    28   16   18 1
    29   17   19 1
    30   20   21 1
    31   20   22 1
    32   21   23 1
    33   22   28 1
    34   23   29 1
    35   29   35 1
    36   32   35 2
    37   33   35 2
    38    1   36 1
    39    2   37 1
    40    3   38 1
    41   10   39 1
    42   10   40 1
    43   11   41 1
    44   11   42 1
    45   12   43 1
    46   12   44 1
    47   13   45 1
    48   13   46 1
    49   14   47 1
    50   14   48 1
    51   15   49 1
    52   16   50 1
    53   17   51 1
    54   18   52 1
    55   18   53 1
    56   18   54 1
    57   19   55 1
    58   19   56 1
    59   19   57 1
    60   20   58 1
    61   20   59 1
    62   21   60 1
    63   21   61 1
    64   22   62 1
    65   22   63 1
    66   23   64 1
    67   24   65 1
    68   26   66 1
    69   26   67 1
    70   27   68 1
    71   27   69 1
    72   28   70 1
    73   29   71 1
    74   34   72 1
@<TRIPOS>MOLECULE
1dwc_ligand_72
   72    74     0     0     0
SMALL
USER_CHARGES

mmff94s_NoEstat = 76.59
@<TRIPOS>ATOM
      1 C1          4.7857   -3.3854   -6.6747 C.ar      1 <0>        -0.1945
      2 C2          4.2835   -2.4050   -7.5279 C.ar      1 <0>        -0.0294
      3 C3          4.0861   -3.7255   -5.5206 C.ar      1 <0>        -0.0143
      4 C4          3.0736   -1.7606   -7.2327 C.ar      1 <0>        -0.1552
      5 C5          2.3740   -2.0785   -6.0516 C.ar      1 <0>         0.3076
      6 C6          2.8878   -3.0788   -5.2136 C.ar      1 <0>        -0.4908
      7 C7          0.5484   -0.8946    1.4535 C.2       1 <0>         0.5994
      8 C8          2.9466   -1.3973   -0.6457 C.2       1 <0>         0.6462
      9 C9          7.6931   -4.2818   -2.0990 C.cat     1 <0>         0.6305
     10 C10         2.5481   -0.6954   -8.1649 C.3       1 <0>        -0.0319
     11 C11         1.0071   -4.1523    1.0299 C.3       1 <0>        -0.0918
     12 C12         1.8830   -2.5004    2.7729 C.3       1 <0>        -0.0841
     13 C13         2.2320   -3.6460    0.2757 C.3       1 <0>         0.0870
     14 C14         0.7263   -0.3013   -6.4881 C.3       1 <0>         0.2023
     15 C15         1.9200   -1.5343    1.5913 C.3       1 <0>         0.0778
     16 C16         1.0380   -0.4809   -7.9775 C.3       1 <0>        -0.0746
     17 C17         1.0079   -3.7392    2.5107 C.3       1 <0>        -0.0681
     18 C18         0.5551    0.7196   -8.7869 C.3       1 <0>        -0.0944
     19 C19         1.4463   -4.8953    3.4115 C.3       1 <0>        -0.0918
     20 C20         5.7415   -1.0578   -1.6401 C.3       1 <0>        -0.1192
     21 C21         4.5564   -1.3488   -2.5679 C.3       1 <0>        -0.0916
     22 C22         6.4279   -2.3331   -1.1666 C.3       1 <0>         0.1883
     23 C23         3.4544   -2.1251   -1.8653 C.3       1 <0>         0.1952
     24 N1          1.1726   -1.4571   -5.7336 N.pl3     1 <0>        -0.7670
     25 N2          2.3654   -2.1840    0.3531 N.am      1 <0>        -0.4509
     26 N3          8.1964   -4.9967   -3.1809 N.pl3     1 <0>        -0.8477
     27 N4          7.9172   -4.7548   -0.8106 N.pl3     1 <0>        -0.8633
     28 N5          6.9676   -3.0994   -2.2805 N.pl3     1 <0>        -0.7419
     29 N6          2.2741   -2.2179   -2.7432 N.pl3     1 <0>        -0.8860
     30 O1         -0.0257   -0.2688    2.3322 O.2       1 <0>        -0.5199
     31 O2          3.0580   -0.1705   -0.5795 O.2       1 <0>        -0.6131
     32 O3          0.6499   -3.7277   -4.0534 O.2       1 <0>        -0.6576
     33 O4          2.8074   -4.6931   -3.1946 O.2       1 <0>        -0.6482
     34 O5          0.0400   -1.1141    0.2163 O.3       1 <0>        -0.6303
     35 S1          2.0591   -3.5786   -3.7438 S.o2      1 <0>         1.5193
     36 H1          5.7203   -3.8862   -6.9120 H         1 <0>         0.1426
     37 H2          4.8354   -2.1479   -8.4289 H         1 <0>         0.1398
     38 H3          4.4644   -4.4919   -4.8517 H         1 <0>         0.1599
     39 H4          3.0928    0.2363   -7.9655 H         1 <0>         0.0574
     40 H5          2.7429   -0.9806   -9.2061 H         1 <0>         0.0629
     41 H6          0.1116   -3.7326    0.5525 H         1 <0>         0.0614
     42 H7          0.9264   -5.2409    0.9288 H         1 <0>         0.0593
     43 H8          2.9117   -2.8226    2.9853 H         1 <0>         0.0841
     44 H9          1.5267   -1.9929    3.6785 H         1 <0>         0.0679
     45 H10         3.1493   -4.0774    0.6933 H         1 <0>         0.0826
     46 H11         2.1726   -3.9558   -0.7722 H         1 <0>         0.0383
     47 H12         1.2164    0.5993   -6.0977 H         1 <0>         0.0556
     48 H13        -0.3518   -0.1738   -6.3395 H         1 <0>         0.0415
     49 H14         2.6095   -0.7128    1.8202 H         1 <0>         0.0851
     50 H15         0.5073   -1.3704   -8.3432 H         1 <0>         0.0639
     51 H16        -0.0273   -3.5034    2.7887 H         1 <0>         0.0584
     52 H17        -0.5372    0.7259   -8.8506 H         1 <0>         0.0401
     53 H18         0.8784    1.6541   -8.3188 H         1 <0>         0.0440
     54 H19         0.9591    0.6854   -9.8032 H         1 <0>         0.0459
     55 H20         0.5753   -5.4296    3.8024 H         1 <0>         0.0456
     56 H21         2.0638   -5.6051    2.8530 H         1 <0>         0.0366
     57 H22         2.0303   -4.5225    4.2583 H         1 <0>         0.0474
     58 H23         6.4686   -0.4251   -2.1633 H         1 <0>         0.0800
     59 H24         5.3954   -0.5006   -0.7619 H         1 <0>         0.0681
     60 H25         4.9119   -1.8947   -3.4517 H         1 <0>         0.0740
     61 H26         4.1396   -0.4017   -2.9334 H         1 <0>         0.0631
     62 H27         5.7338   -2.9738   -0.6133 H         1 <0>         0.0970
     63 H28         7.2615   -2.0842   -0.5022 H         1 <0>         0.0725
     64 H29         3.7703   -3.1244   -1.5692 H         1 <0>         0.0839
     65 H30         0.7458   -1.6637   -4.8389 H         1 <0>         0.4531
     66 H31         8.0557   -4.6904   -4.1399 H         1 <0>         0.4798
     67 H32         8.7224   -5.8561   -3.0401 H         1 <0>         0.4881
     68 H33         7.5634   -4.2571    0.0028 H         1 <0>         0.4801
     69 H34         8.4421   -5.6108   -0.6478 H         1 <0>         0.4806
     70 H35         6.8195   -2.7774   -3.2381 H         1 <0>         0.4689
     71 H36         1.4502   -1.6870   -2.4414 H         1 <0>         0.4505
     72 H37        -0.8473   -0.7100    0.1079 H         1 <0>         0.4443
@<TRIPOS>BOND
     1    1    2 ar
     2    1    3 ar
     3    2    4 ar
     4    3    6 ar
     5    4    5 ar
     6    4   10 1
     7    5    6 ar
     8    5   24 1
     9    6   35 1
    10    7   15 1
    11    7   30 2
    12    7   34 1
    13    8   23 1
    14    8   25 am
    15    8   31 2
    16    9   26 1
    17    9   27 1
    18    9   28 1
    19   10   16 1
    20   11   13 1
    21   11   17 1
    22   12   15 1
    23   12   17 1
    24   13   25 1
    25   14   16 1
    26   14   24 1
    27   15   25 1
    28   16   18 1
    29   17   19 1
    30   20   21 1
    31   20   22 1
    32   21   23 1
    33   22   28 1
    34   23   29 1
    35   29   35 1
    36   32   35 2
    37   33   35 2
    38    1   36 1
    39    2   37 1
    40    3   38 1
    41   10   39 1
    42   10   40 1
    43   11   41 1
    44   11   42 1
    45   12   43 1
    46   12   44 1
    47   13   45 1
    48   13   46 1
    49   14   47 1
    50   14   48 1
    51   15   49 1
    52   16   50 1
    53   17   51 1
    54   18   52 1
    55   18   53 1
    56   18   54 1
    57   19   55 1
    58   19   56 1
    59   19   57 1
    60   20   58 1
    61   20   59 1
    62   21   60 1
    63   21   61 1
    64   22   62 1
    65   22   63 1
    66   23   64 1
    67   24   65 1
    68   26   66 1
    69   26   67 1
    70   27   68 1
    71   27   69 1
    72   28   70 1
    73   29   71 1
    74   34   72 1
@<TRIPOS>MOLECULE
1dwc_ligand_73
   72    74     0     0     0
SMALL
USER_CHARGES

mmff94s_NoEstat = 76.59
@<TRIPOS>ATOM
      1 C1         -2.2959   -2.3538    7.8119 C.ar      1 <0>        -0.1945
      2 C2         -2.6720   -1.0237    7.9869 C.ar      1 <0>        -0.0294
      3 C3         -2.3070   -2.9163    6.5390 C.ar      1 <0>        -0.0143
      4 C4         -3.0584   -0.2458    6.8861 C.ar      1 <0>        -0.1552
      5 C5         -3.1002   -0.8160    5.5982 C.ar      1 <0>         0.3076
      6 C6         -2.7033   -2.1518    5.4404 C.ar      1 <0>        -0.4908
      7 C7          2.0323   -3.0842    5.9821 C.2       1 <0>         0.5994
      8 C8          0.8654   -1.4427    3.2413 C.2       1 <0>         0.6462
      9 C9          2.8571   -3.2799   -1.0245 C.cat     1 <0>         0.6305
     10 C10        -3.4700    1.1919    7.0953 C.3       1 <0>        -0.0319
     11 C11         3.0911    0.4998    5.4298 C.3       1 <0>        -0.0918
     12 C12         1.5534   -0.8369    6.8842 C.3       1 <0>        -0.0841
     13 C13         2.8818   -0.5022    4.3015 C.3       1 <0>         0.0870
     14 C14        -4.0628    1.2474    4.6598 C.3       1 <0>         0.2023
     15 C15         1.2754   -1.7924    5.7207 C.3       1 <0>         0.0778
     16 C16        -3.3611    2.0019    5.7939 C.3       1 <0>        -0.0746
     17 C17         2.9339   -0.1724    6.7962 C.3       1 <0>        -0.0681
     18 C18        -3.9527    3.3976    5.9715 C.3       1 <0>        -0.0944
     19 C19         3.1216    0.8403    7.9242 C.3       1 <0>        -0.0918
     20 C20         1.7689   -4.0083    2.0091 C.3       1 <0>        -0.1192
     21 C21         0.3004   -3.5693    2.0376 C.3       1 <0>        -0.0916
     22 C22         2.0958   -4.8429    0.7769 C.3       1 <0>         0.1883
     23 C23        -0.0078   -2.6730    3.2260 C.3       1 <0>         0.1952
     24 N1         -3.4782   -0.0694    4.4890 N.pl3     1 <0>        -0.7670
     25 N2          1.5999   -1.2067    4.4091 N.am      1 <0>        -0.4509
     26 N3          2.6214   -2.5784   -2.2023 N.pl3     1 <0>        -0.8477
     27 N4          4.0963   -3.1655   -0.4037 N.pl3     1 <0>        -0.8633
     28 N5          1.8751   -4.0962   -0.4532 N.pl3     1 <0>        -0.7419
     29 N6         -1.3760   -2.1385    3.1042 N.pl3     1 <0>        -0.8860
     30 O1          3.1450   -3.3455    5.5497 O.2       1 <0>        -0.5199
     31 O2          0.8891   -0.7105    2.2483 O.2       1 <0>        -0.6131
     32 O3         -2.3304   -4.3295    4.0644 O.2       1 <0>        -0.6576
     33 O4         -3.9087   -2.5768    3.1921 O.2       1 <0>        -0.6482
     34 O5          1.3022   -3.9170    6.7635 O.3       1 <0>        -0.6303
     35 S1         -2.6746   -2.9347    3.8647 S.o2      1 <0>         1.5193
     36 H1         -1.9909   -2.9498    8.6676 H         1 <0>         0.1426
     37 H2         -2.6574   -0.5917    8.9847 H         1 <0>         0.1398
     38 H3         -2.0103   -3.9495    6.3897 H         1 <0>         0.1599
     39 H4         -4.5027    1.2042    7.4664 H         1 <0>         0.0574
     40 H5         -2.8343    1.6552    7.8598 H         1 <0>         0.0629
     41 H6          4.0885    0.9467    5.3426 H         1 <0>         0.0614
     42 H7          2.3630    1.3153    5.3324 H         1 <0>         0.0593
     43 H8          0.7851   -0.0517    6.8776 H         1 <0>         0.0841
     44 H9          1.4567   -1.3607    7.8437 H         1 <0>         0.0679
     45 H10         2.9560    0.0148    3.3392 H         1 <0>         0.0826
     46 H11         3.6704   -1.2643    4.3172 H         1 <0>         0.0383
     47 H12        -5.1346    1.1449    4.8705 H         1 <0>         0.0556
     48 H13        -3.9688    1.8032    3.7203 H         1 <0>         0.0415
     49 H14         0.2160   -2.0663    5.7460 H         1 <0>         0.0851
     50 H15        -2.2992    2.1152    5.5368 H         1 <0>         0.0639
     51 H16         3.7104   -0.9392    6.9078 H         1 <0>         0.0584
     52 H17        -3.6607    4.0473    5.1410 H         1 <0>         0.0401
     53 H18        -5.0453    3.3508    6.0047 H         1 <0>         0.0440
     54 H19        -3.5987    3.8493    6.9030 H         1 <0>         0.0459
     55 H20         2.2527    0.8404    8.5891 H         1 <0>         0.0456
     56 H21         4.0086    0.5961    8.5164 H         1 <0>         0.0366
     57 H22         3.2450    1.8489    7.5186 H         1 <0>         0.0474
     58 H23         2.4156   -3.1229    2.0318 H         1 <0>         0.0800
     59 H24         1.9949   -4.6013    2.9028 H         1 <0>         0.0681
     60 H25        -0.3448   -4.4577    2.0448 H         1 <0>         0.0740
     61 H26         0.0666   -3.0218    1.1158 H         1 <0>         0.0631
     62 H27         1.4860   -5.7513    0.7413 H         1 <0>         0.0970
     63 H28         3.1484   -5.1425    0.7970 H         1 <0>         0.0725
     64 H29         0.1003   -3.1895    4.1787 H         1 <0>         0.0839
     65 H30        -3.5654   -0.5418    3.5977 H         1 <0>         0.4531
     66 H31         1.7321   -2.6330   -2.6917 H         1 <0>         0.4798
     67 H32         3.3414   -1.9873   -2.6114 H         1 <0>         0.4881
     68 H33         4.3022   -3.6645    0.4583 H         1 <0>         0.4801
     69 H34         4.8291   -2.5786   -0.7952 H         1 <0>         0.4806
     70 H35         0.9755   -4.1600   -0.9320 H         1 <0>         0.4689
     71 H36        -1.4476   -1.1318    2.9219 H         1 <0>         0.4505
     72 H37         1.7734   -4.7586    6.9424 H         1 <0>         0.4443
@<TRIPOS>BOND
     1    1    2 ar
     2    1    3 ar
     3    2    4 ar
     4    3    6 ar
     5    4    5 ar
     6    4   10 1
     7    5    6 ar
     8    5   24 1
     9    6   35 1
    10    7   15 1
    11    7   30 2
    12    7   34 1
    13    8   23 1
    14    8   25 am
    15    8   31 2
    16    9   26 1
    17    9   27 1
    18    9   28 1
    19   10   16 1
    20   11   13 1
    21   11   17 1
    22   12   15 1
    23   12   17 1
    24   13   25 1
    25   14   16 1
    26   14   24 1
    27   15   25 1
    28   16   18 1
    29   17   19 1
    30   20   21 1
    31   20   22 1
    32   21   23 1
    33   22   28 1
    34   23   29 1
    35   29   35 1
    36   32   35 2
    37   33   35 2
    38    1   36 1
    39    2   37 1
    40    3   38 1
    41   10   39 1
    42   10   40 1
    43   11   41 1
    44   11   42 1
    45   12   43 1
    46   12   44 1
    47   13   45 1
    48   13   46 1
    49   14   47 1
    50   14   48 1
    51   15   49 1
    52   16   50 1
    53   17   51 1
    54   18   52 1
    55   18   53 1
    56   18   54 1
    57   19   55 1
    58   19   56 1
    59   19   57 1
    60   20   58 1
    61   20   59 1
    62   21   60 1
    63   21   61 1
    64   22   62 1
    65   22   63 1
    66   23   64 1
    67   24   65 1
    68   26   66 1
    69   26   67 1
    70   27   68 1
    71   27   69 1
    72   28   70 1
    73   29   71 1
    74   34   72 1
@<TRIPOS>MOLECULE
1dwc_ligand_74
   72    74     0     0     0
SMALL
USER_CHARGES

mmff94s_NoEstat = 76.60
@<TRIPOS>ATOM
      1 C1          1.6845   -5.9778    0.1844 C.ar      1 <0>        -0.1945
      2 C2          0.6520   -5.4496    0.9566 C.ar      1 <0>        -0.0294
      3 C3          1.9606   -5.4374   -1.0681 C.ar      1 <0>        -0.0143
      4 C4         -0.1093   -4.3725    0.4806 C.ar      1 <0>        -0.1552
      5 C5          0.1450   -3.8386   -0.7984 C.ar      1 <0>         0.3076
      6 C6          1.1982   -4.3739   -1.5539 C.ar      1 <0>        -0.4908
      7 C7          2.6281   -1.3042    2.5638 C.2       1 <0>         0.5994
      8 C8          2.9466   -1.3973   -0.6457 C.2       1 <0>         0.6462
      9 C9          6.5039    2.1705   -2.3080 C.cat     1 <0>         0.6305
     10 C10        -1.2292   -3.8175    1.3278 C.3       1 <0>        -0.0319
     11 C11         5.7543   -2.0741    1.7663 C.3       1 <0>        -0.0918
     12 C12         4.6161    0.1433    2.3333 C.3       1 <0>        -0.0841
     13 C13         5.2430   -1.7129    0.3758 C.3       1 <0>         0.0870
     14 C14        -1.7931   -2.3309   -0.6108 C.3       1 <0>         0.2023
     15 C15         3.4337   -0.4666    1.5844 C.3       1 <0>         0.0778
     16 C16        -1.5940   -2.3850    0.9075 C.3       1 <0>        -0.0746
     17 C17         5.6648   -0.9011    2.7560 C.3       1 <0>        -0.0681
     18 C18        -2.8431   -1.9049    1.6414 C.3       1 <0>        -0.0944
     19 C19         7.0265   -0.2323    2.9523 C.3       1 <0>        -0.0918
     20 C20         4.0666    0.0061   -3.0917 C.3       1 <0>        -0.1192
     21 C21         4.5564   -1.3488   -2.5679 C.3       1 <0>        -0.0916
     22 C22         5.1498    0.7503   -3.8628 C.3       1 <0>         0.1883
     23 C23         3.4544   -2.1251   -1.8653 C.3       1 <0>         0.1952
     24 N1         -0.5924   -2.7711   -1.2958 N.pl3     1 <0>        -0.7670
     25 N2          3.8547   -1.2301    0.4039 N.am      1 <0>        -0.4509
     26 N3          7.6371    2.3758   -1.5279 N.pl3     1 <0>        -0.8477
     27 N4          5.5279    3.1599   -2.3593 N.pl3     1 <0>        -0.8633
     28 N5          6.3266    0.9918   -3.0404 N.pl3     1 <0>        -0.7419
     29 N6          2.2741   -2.2179   -2.7432 N.pl3     1 <0>        -0.8860
     30 O1          2.1401   -0.8907    3.6051 O.2       1 <0>        -0.5199
     31 O2          1.7818   -0.9917   -0.6208 O.2       1 <0>        -0.6131
     32 O3          2.6686   -4.5798   -3.6918 O.2       1 <0>        -0.6576
     33 O4          0.3811   -3.5494   -3.8650 O.2       1 <0>        -0.6482
     34 O5          2.5235   -2.5830    2.1269 O.3       1 <0>        -0.6303
     35 S1          1.6226   -3.7401   -3.1398 S.o2      1 <0>         1.5193
     36 H1          2.2754   -6.8081    0.5612 H         1 <0>         0.1426
     37 H2          0.4453   -5.8762    1.9353 H         1 <0>         0.1398
     38 H3          2.7663   -5.8367   -1.6758 H         1 <0>         0.1599
     39 H4         -2.0994   -4.4781    1.2245 H         1 <0>         0.0574
     40 H5         -0.9335   -3.8165    2.3842 H         1 <0>         0.0629
     41 H6          5.1450   -2.9020    2.1525 H         1 <0>         0.0614
     42 H7          6.7810   -2.4531    1.7029 H         1 <0>         0.0593
     43 H8          5.0903    0.8874    1.6785 H         1 <0>         0.0841
     44 H9          4.2733    0.6894    3.2215 H         1 <0>         0.0679
     45 H10         5.8537   -0.9171   -0.0665 H         1 <0>         0.0826
     46 H11         5.3167   -2.5850   -0.2811 H         1 <0>         0.0383
     47 H12        -2.6365   -2.9647   -0.9116 H         1 <0>         0.0556
     48 H13        -2.0279   -1.3080   -0.9257 H         1 <0>         0.0415
     49 H14         2.7622    0.3365    1.2577 H         1 <0>         0.0851
     50 H15        -0.7654   -1.7164    1.1777 H         1 <0>         0.0639
     51 H16         5.3768   -1.3130    3.7317 H         1 <0>         0.0584
     52 H17        -2.9604   -0.8225    1.5328 H         1 <0>         0.0401
     53 H18        -3.7366   -2.3905    1.2379 H         1 <0>         0.0440
     54 H19        -2.7758   -2.1387    2.7081 H         1 <0>         0.0459
     55 H20         7.5288   -0.6354    3.8367 H         1 <0>         0.0456
     56 H21         7.6683   -0.4045    2.0831 H         1 <0>         0.0366
     57 H22         6.9087    0.8473    3.0852 H         1 <0>         0.0474
     58 H23         3.1961   -0.1462   -3.7411 H         1 <0>         0.0800
     59 H24         3.7428    0.6319   -2.2522 H         1 <0>         0.0681
     60 H25         5.4094   -1.1917   -1.8946 H         1 <0>         0.0740
     61 H26         4.9285   -1.9502   -3.4070 H         1 <0>         0.0631
     62 H27         4.7831    1.7144   -4.2291 H         1 <0>         0.0970
     63 H28         5.4669    0.1582   -4.7272 H         1 <0>         0.0725
     64 H29         3.7703   -3.1244   -1.5692 H         1 <0>         0.0839
     65 H30        -0.4235   -2.4715   -2.2481 H         1 <0>         0.4531
     66 H31         8.3751    1.6802   -1.4586 H         1 <0>         0.4798
     67 H32         7.7578    3.2357   -0.9979 H         1 <0>         0.4881
     68 H33         4.6870    3.0425   -2.9194 H         1 <0>         0.4801
     69 H34         5.6299    4.0277   -1.8385 H         1 <0>         0.4806
     70 H35         7.0604    0.2841   -2.9828 H         1 <0>         0.4689
     71 H36         1.6613   -1.3957   -2.7560 H         1 <0>         0.4505
     72 H37         2.0077   -3.1411    2.7472 H         1 <0>         0.4443
@<TRIPOS>BOND
     1    1    2 ar
     2    1    3 ar
     3    2    4 ar
     4    3    6 ar
     5    4    5 ar
     6    4   10 1
     7    5    6 ar
     8    5   24 1
     9    6   35 1
    10    7   15 1
    11    7   30 2
    12    7   34 1
    13    8   23 1
    14    8   25 am
    15    8   31 2
    16    9   26 1
    17    9   27 1
    18    9   28 1
    19   10   16 1
    20   11   13 1
    21   11   17 1
    22   12   15 1
    23   12   17 1
    24   13   25 1
    25   14   16 1
    26   14   24 1
    27   15   25 1
    28   16   18 1
    29   17   19 1
    30   20   21 1
    31   20   22 1
    32   21   23 1
    33   22   28 1
    34   23   29 1
    35   29   35 1
    36   32   35 2
    37   33   35 2
    38    1   36 1
    39    2   37 1
    40    3   38 1
    41   10   39 1
    42   10   40 1
    43   11   41 1
    44   11   42 1
    45   12   43 1
    46   12   44 1
    47   13   45 1
    48   13   46 1
    49   14   47 1
    50   14   48 1
    51   15   49 1
    52   16   50 1
    53   17   51 1
    54   18   52 1
    55   18   53 1
    56   18   54 1
    57   19   55 1
    58   19   56 1
    59   19   57 1
    60   20   58 1
    61   20   59 1
    62   21   60 1
    63   21   61 1
    64   22   62 1
    65   22   63 1
    66   23   64 1
    67   24   65 1
    68   26   66 1
    69   26   67 1
    70   27   68 1
    71   27   69 1
    72   28   70 1
    73   29   71 1
    74   34   72 1
@<TRIPOS>MOLECULE
1dwc_ligand_75
   72    74     0     0     0
SMALL
USER_CHARGES

mmff94s_NoEstat = 76.64
@<TRIPOS>ATOM
      1 C1          2.5116   -3.9380   -0.5557 C.ar      1 <0>        -0.1945
      2 C2          3.7426   -3.3274   -0.3259 C.ar      1 <0>        -0.0294
      3 C3          1.7913   -4.4690    0.5101 C.ar      1 <0>        -0.0143
      4 C4          4.2632   -3.2477    0.9738 C.ar      1 <0>        -0.1552
      5 C5          3.5271   -3.7571    2.0614 C.ar      1 <0>         0.3076
      6 C6          2.2973   -4.3819    1.8081 C.ar      1 <0>        -0.4908
      7 C7         -1.1116    1.0220    1.9825 C.2       1 <0>         0.5994
      8 C8          0.8654   -1.4427    3.2413 C.2       1 <0>         0.6462
      9 C9         -3.0269   -4.2491    7.1046 C.cat     1 <0>         0.6305
     10 C10         5.5952   -2.5748    1.2036 C.3       1 <0>        -0.0319
     11 C11         2.1388    0.2326    0.2266 C.3       1 <0>        -0.0918
     12 C12        -0.3237   -0.1114   -0.0639 C.3       1 <0>        -0.0841
     13 C13         1.9602    0.1751    1.7384 C.3       1 <0>         0.0870
     14 C14         5.1895   -2.8951    3.6625 C.3       1 <0>         0.2023
     15 C15        -0.4871   -0.2577    1.4512 C.3       1 <0>         0.0778
     16 C16         6.2338   -2.9744    2.5437 C.3       1 <0>        -0.0746
     17 C17         0.8749    0.7635   -0.4549 C.3       1 <0>        -0.0681
     18 C18         6.8920   -4.3571    2.4737 C.3       1 <0>        -0.0944
     19 C19         1.0498    0.7979   -1.9719 C.3       1 <0>        -0.0918
     20 C20        -1.0866   -2.1427    5.4567 C.3       1 <0>        -0.1192
     21 C21        -1.3133   -2.4479    3.9716 C.3       1 <0>        -0.0916
     22 C22        -2.3970   -1.9935    6.2196 C.3       1 <0>         0.1883
     23 C23        -0.0078   -2.6730    3.2260 C.3       1 <0>         0.1952
     24 N1          4.0208   -3.6991    3.3587 N.pl3     1 <0>        -0.7670
     25 N2          0.7744   -0.5925    2.1333 N.am      1 <0>        -0.4509
     26 N3         -3.7970   -5.4059    7.0420 N.pl3     1 <0>        -0.8477
     27 N4         -2.0778   -4.1204    8.1129 N.pl3     1 <0>        -0.8633
     28 N5         -3.1876   -3.2152    6.1760 N.pl3     1 <0>        -0.7419
     29 N6          0.7961   -3.6905    3.9267 N.pl3     1 <0>        -0.8860
     30 O1         -0.4892    1.9717    2.4341 O.2       1 <0>        -0.5199
     31 O2          1.6103   -1.2468    4.2054 O.2       1 <0>        -0.6131
     32 O3          0.1838   -5.7392    2.4909 O.2       1 <0>        -0.6576
     33 O4          2.2286   -5.8263    3.9523 O.2       1 <0>        -0.6482
     34 O5         -2.4629    0.9691    1.8908 O.3       1 <0>        -0.6303
     35 S1          1.3247   -5.0804    3.0977 S.o2      1 <0>         1.5193
     36 H1          2.1160   -4.0026   -1.5657 H         1 <0>         0.1426
     37 H2          4.2999   -2.9178   -1.1651 H         1 <0>         0.1398
     38 H3          0.8339   -4.9524    0.3425 H         1 <0>         0.1599
     39 H4          6.2849   -2.8099    0.3837 H         1 <0>         0.0574
     40 H5          5.4270   -1.4903    1.1935 H         1 <0>         0.0629
     41 H6          2.9950    0.8726   -0.0171 H         1 <0>         0.0614
     42 H7          2.3692   -0.7717   -0.1514 H         1 <0>         0.0593
     43 H8         -0.1827   -1.1122   -0.4945 H         1 <0>         0.0841
     44 H9         -1.2391    0.2955   -0.5121 H         1 <0>         0.0679
     45 H10         2.8610   -0.2490    2.1940 H         1 <0>         0.0826
     46 H11         1.8403    1.1858    2.1470 H         1 <0>         0.0383
     47 H12         5.6214   -3.2300    4.6122 H         1 <0>         0.0556
     48 H13         4.8765   -1.8531    3.8022 H         1 <0>         0.0415
     49 H14        -1.2253   -1.0427    1.6435 H         1 <0>         0.0851
     50 H15         7.0369   -2.2610    2.7660 H         1 <0>         0.0639
     51 H16         0.6944    1.7923   -0.1196 H         1 <0>         0.0584
     52 H17         6.6629   -4.8441    1.5211 H         1 <0>         0.0401
     53 H18         7.9790   -4.2705    2.5637 H         1 <0>         0.0440
     54 H19         6.5291   -4.9970    3.2836 H         1 <0>         0.0459
     55 H20         0.1097    0.5485   -2.4730 H         1 <0>         0.0456
     56 H21         1.3618    1.7937   -2.3005 H         1 <0>         0.0366
     57 H22         1.8100    0.0770   -2.2875 H         1 <0>         0.0474
     58 H23        -0.4913   -2.9455    5.9081 H         1 <0>         0.0800
     59 H24        -0.5143   -1.2136    5.5600 H         1 <0>         0.0681
     60 H25        -1.8840   -1.6286    3.5148 H         1 <0>         0.0740
     61 H26        -1.9315   -3.3495    3.8758 H         1 <0>         0.0631
     62 H27        -3.0022   -1.1781    5.8107 H         1 <0>         0.0970
     63 H28        -2.1935   -1.7693    7.2716 H         1 <0>         0.0725
     64 H29        -0.1638   -2.9774    2.1921 H         1 <0>         0.0839
     65 H30         3.4221   -4.0102    4.1139 H         1 <0>         0.4531
     66 H31        -4.5036   -5.5429    6.3243 H         1 <0>         0.4798
     67 H32        -3.6741   -6.1527    7.7218 H         1 <0>         0.4881
     68 H33        -1.4980   -3.2881    8.1880 H         1 <0>         0.4801
     69 H34        -1.9378   -4.8560    8.8013 H         1 <0>         0.4806
     70 H35        -3.8923   -3.3388    5.4474 H         1 <0>         0.4689
     71 H36         1.3354   -3.3564    4.7325 H         1 <0>         0.4505
     72 H37        -2.8855    1.7865    2.2310 H         1 <0>         0.4443
@<TRIPOS>BOND
     1    1    2 ar
     2    1    3 ar
     3    2    4 ar
     4    3    6 ar
     5    4    5 ar
     6    4   10 1
     7    5    6 ar
     8    5   24 1
     9    6   35 1
    10    7   15 1
    11    7   30 2
    12    7   34 1
    13    8   23 1
    14    8   25 am
    15    8   31 2
    16    9   26 1
    17    9   27 1
    18    9   28 1
    19   10   16 1
    20   11   13 1
    21   11   17 1
    22   12   15 1
    23   12   17 1
    24   13   25 1
    25   14   16 1
    26   14   24 1
    27   15   25 1
    28   16   18 1
    29   17   19 1
    30   20   21 1
    31   20   22 1
    32   21   23 1
    33   22   28 1
    34   23   29 1
    35   29   35 1
    36   32   35 2
    37   33   35 2
    38    1   36 1
    39    2   37 1
    40    3   38 1
    41   10   39 1
    42   10   40 1
    43   11   41 1
    44   11   42 1
    45   12   43 1
    46   12   44 1
    47   13   45 1
    48   13   46 1
    49   14   47 1
    50   14   48 1
    51   15   49 1
    52   16   50 1
    53   17   51 1
    54   18   52 1
    55   18   53 1
    56   18   54 1
    57   19   55 1
    58   19   56 1
    59   19   57 1
    60   20   58 1
    61   20   59 1
    62   21   60 1
    63   21   61 1
    64   22   62 1
    65   22   63 1
    66   23   64 1
    67   24   65 1
    68   26   66 1
    69   26   67 1
    70   27   68 1
    71   27   69 1
    72   28   70 1
    73   29   71 1
    74   34   72 1
@<TRIPOS>MOLECULE
1dwc_ligand_76
   72    74     0     0     0
SMALL
USER_CHARGES

mmff94s_NoEstat = 76.65
@<TRIPOS>ATOM
      1 C1          3.3055   -6.8449   -1.9341 C.ar      1 <0>        -0.1945
      2 C2          3.8095   -7.1580   -3.1947 C.ar      1 <0>        -0.0294
      3 C3          2.5030   -5.7201   -1.7675 C.ar      1 <0>        -0.0143
      4 C4          3.5095   -6.3479   -4.2992 C.ar      1 <0>        -0.1552
      5 C5          2.7217   -5.1914   -4.1335 C.ar      1 <0>         0.3076
      6 C6          2.2111   -4.9017   -2.8599 C.ar      1 <0>        -0.4908
      7 C7          1.8102   -1.5505    2.3702 C.2       1 <0>         0.5994
      8 C8          2.9466   -1.3973   -0.6457 C.2       1 <0>         0.6462
      9 C9          7.3062   -4.5323   -1.8364 C.cat     1 <0>         0.6305
     10 C10         4.0704   -6.6982   -5.6567 C.3       1 <0>        -0.0319
     11 C11         4.4920   -3.4807    2.0801 C.3       1 <0>        -0.0918
     12 C12         4.1798   -1.0721    2.8769 C.3       1 <0>        -0.0841
     13 C13         4.5658   -2.7774    0.7291 C.3       1 <0>         0.0870
     14 C14         3.0733   -4.5524   -6.4856 C.3       1 <0>         0.2023
     15 C15         3.1125   -1.0286    1.7861 C.3       1 <0>         0.0778
     16 C16         3.2586   -6.0435   -6.7854 C.3       1 <0>        -0.0746
     17 C17         4.5869   -2.5050    3.2643 C.3       1 <0>        -0.0681
     18 C18         3.9400   -6.2504   -8.1353 C.3       1 <0>        -0.0944
     19 C19         5.9882   -2.5079    3.8779 C.3       1 <0>        -0.0918
     20 C20         5.1203   -2.1076   -3.7746 C.3       1 <0>        -0.1192
     21 C21         4.5564   -1.3488   -2.5679 C.3       1 <0>        -0.0916
     22 C22         5.6479   -3.4850   -3.3924 C.3       1 <0>         0.1883
     23 C23         3.4544   -2.1251   -1.8653 C.3       1 <0>         0.1952
     24 N1          2.4075   -4.3705   -5.2096 N.pl3     1 <0>        -0.7670
     25 N2          3.5192   -1.7560    0.5781 N.am      1 <0>        -0.4509
     26 N3          8.3122   -4.4229   -0.8820 N.pl3     1 <0>        -0.8477
     27 N4          6.8952   -5.7960   -2.2464 N.pl3     1 <0>        -0.8633
     28 N5          6.7009   -3.3994   -2.3908 N.pl3     1 <0>        -0.7419
     29 N6          2.2741   -2.2179   -2.7432 N.pl3     1 <0>        -0.8860
     30 O1          1.2492   -1.0925    3.3546 O.2       1 <0>        -0.5199
     31 O2          2.0685   -0.5400   -0.7710 O.2       1 <0>        -0.6131
     32 O3          0.1927   -3.4494   -3.6292 O.2       1 <0>        -0.6576
     33 O4          0.7527   -3.5815   -1.1810 O.2       1 <0>        -0.6482
     34 O5          1.3501   -2.6026    1.6500 O.3       1 <0>        -0.6303
     35 S1          1.1775   -3.5081   -2.5659 S.o2      1 <0>         1.5193
     36 H1          3.5358   -7.4800   -1.0832 H         1 <0>         0.1426
     37 H2          4.4333   -8.0405   -3.3162 H         1 <0>         0.1398
     38 H3          2.0998   -5.4697   -0.7914 H         1 <0>         0.1599
     39 H4          5.1147   -6.3633   -5.6949 H         1 <0>         0.0574
     40 H5          4.0627   -7.7864   -5.7947 H         1 <0>         0.0629
     41 H6          3.5311   -4.0088    2.1410 H         1 <0>         0.0614
     42 H7          5.2694   -4.2509    2.1463 H         1 <0>         0.0593
     43 H8          5.0641   -0.5305    2.5137 H         1 <0>         0.0841
     44 H9          3.8399   -0.5392    3.7741 H         1 <0>         0.0679
     45 H10         5.5312   -2.2723    0.6079 H         1 <0>         0.0826
     46 H11         4.4795   -3.5150   -0.0747 H         1 <0>         0.0383
     47 H12         4.0431   -4.0398   -6.4660 H         1 <0>         0.0556
     48 H13         2.4729   -4.0799   -7.2710 H         1 <0>         0.0415
     49 H14         2.9188    0.0160    1.5141 H         1 <0>         0.0851
     50 H15         2.2693   -6.5190   -6.8298 H         1 <0>         0.0639
     51 H16         3.9047   -2.8651    4.0450 H         1 <0>         0.0584
     52 H17         3.2554   -6.0057   -8.9529 H         1 <0>         0.0401
     53 H18         4.8233   -5.6107   -8.2222 H         1 <0>         0.0440
     54 H19         4.2559   -7.2916   -8.2507 H         1 <0>         0.0459
     55 H20         6.0310   -3.1862    4.7353 H         1 <0>         0.0456
     56 H21         6.7293   -2.8350    3.1425 H         1 <0>         0.0366
     57 H22         6.2606   -1.5045    4.2187 H         1 <0>         0.0474
     58 H23         4.3389   -2.2150   -4.5365 H         1 <0>         0.0800
     59 H24         5.9381   -1.5325   -4.2238 H         1 <0>         0.0681
     60 H25         4.1906   -0.3664   -2.8945 H         1 <0>         0.0740
     61 H26         5.3633   -1.1575   -1.8491 H         1 <0>         0.0631
     62 H27         6.0463   -4.0122   -4.2651 H         1 <0>         0.0970
     63 H28         4.8397   -4.0910   -2.9708 H         1 <0>         0.0725
     64 H29         3.7703   -3.1244   -1.5692 H         1 <0>         0.0839
     65 H30         1.9026   -3.5116   -5.0286 H         1 <0>         0.4531
     66 H31         8.6460   -3.5206   -0.5539 H         1 <0>         0.4798
     67 H32         8.7476   -5.2520   -0.4844 H         1 <0>         0.4881
     68 H33         6.1625   -5.9122   -2.9422 H         1 <0>         0.4801
     69 H34         7.3161   -6.6377   -1.8601 H         1 <0>         0.4806
     70 H35         7.0240   -2.4854   -2.0698 H         1 <0>         0.4689
     71 H36         1.9407   -1.3323   -3.1385 H         1 <0>         0.4505
     72 H37         0.5099   -2.9556    2.0129 H         1 <0>         0.4443
@<TRIPOS>BOND
     1    1    2 ar
     2    1    3 ar
     3    2    4 ar
     4    3    6 ar
     5    4    5 ar
     6    4   10 1
     7    5    6 ar
     8    5   24 1
     9    6   35 1
    10    7   15 1
    11    7   30 2
    12    7   34 1
    13    8   23 1
    14    8   25 am
    15    8   31 2
    16    9   26 1
    17    9   27 1
    18    9   28 1
    19   10   16 1
    20   11   13 1
    21   11   17 1
    22   12   15 1
    23   12   17 1
    24   13   25 1
    25   14   16 1
    26   14   24 1
    27   15   25 1
    28   16   18 1
    29   17   19 1
    30   20   21 1
    31   20   22 1
    32   21   23 1
    33   22   28 1
    34   23   29 1
    35   29   35 1
    36   32   35 2
    37   33   35 2
    38    1   36 1
    39    2   37 1
    40    3   38 1
    41   10   39 1
    42   10   40 1
    43   11   41 1
    44   11   42 1
    45   12   43 1
    46   12   44 1
    47   13   45 1
    48   13   46 1
    49   14   47 1
    50   14   48 1
    51   15   49 1
    52   16   50 1
    53   17   51 1
    54   18   52 1
    55   18   53 1
    56   18   54 1
    57   19   55 1
    58   19   56 1
    59   19   57 1
    60   20   58 1
    61   20   59 1
    62   21   60 1
    63   21   61 1
    64   22   62 1
    65   22   63 1
    66   23   64 1
    67   24   65 1
    68   26   66 1
    69   26   67 1
    70   27   68 1
    71   27   69 1
    72   28   70 1
    73   29   71 1
    74   34   72 1
@<TRIPOS>MOLECULE
1dwc_ligand_77
   72    74     0     0     0
SMALL
USER_CHARGES

mmff94s_NoEstat = 76.67
@<TRIPOS>ATOM
      1 C1          1.6845   -5.9778    0.1844 C.ar      1 <0>        -0.1945
      2 C2          0.6520   -5.4496    0.9566 C.ar      1 <0>        -0.0294
      3 C3          1.9606   -5.4374   -1.0681 C.ar      1 <0>        -0.0143
      4 C4         -0.1093   -4.3725    0.4806 C.ar      1 <0>        -0.1552
      5 C5          0.1450   -3.8386   -0.7984 C.ar      1 <0>         0.3076
      6 C6          1.1982   -4.3739   -1.5539 C.ar      1 <0>        -0.4908
      7 C7          2.6281   -1.3042    2.5638 C.2       1 <0>         0.5994
      8 C8          2.9466   -1.3973   -0.6457 C.2       1 <0>         0.6462
      9 C9          6.2513   -1.9189   -6.8735 C.cat     1 <0>         0.6305
     10 C10        -1.2292   -3.8175    1.3278 C.3       1 <0>        -0.0319
     11 C11         5.7543   -2.0741    1.7663 C.3       1 <0>        -0.0918
     12 C12         4.6161    0.1433    2.3333 C.3       1 <0>        -0.0841
     13 C13         5.2430   -1.7129    0.3758 C.3       1 <0>         0.0870
     14 C14        -1.7931   -2.3309   -0.6108 C.3       1 <0>         0.2023
     15 C15         3.4337   -0.4666    1.5844 C.3       1 <0>         0.0778
     16 C16        -1.5940   -2.3850    0.9075 C.3       1 <0>        -0.0746
     17 C17         5.6648   -0.9011    2.7560 C.3       1 <0>        -0.0681
     18 C18        -2.8431   -1.9049    1.6414 C.3       1 <0>        -0.0944
     19 C19         7.0265   -0.2323    2.9523 C.3       1 <0>        -0.0918
     20 C20         5.1203   -2.1076   -3.7746 C.3       1 <0>        -0.1192
     21 C21         4.5564   -1.3488   -2.5679 C.3       1 <0>        -0.0916
     22 C22         6.2766   -1.3646   -4.4322 C.3       1 <0>         0.1883
     23 C23         3.4544   -2.1251   -1.8653 C.3       1 <0>         0.1952
     24 N1         -0.5924   -2.7711   -1.2958 N.pl3     1 <0>        -0.7670
     25 N2          3.8547   -1.2301    0.4039 N.am      1 <0>        -0.4509
     26 N3          6.7595   -2.6146   -7.9655 N.pl3     1 <0>        -0.8477
     27 N4          5.1873   -1.0435   -7.0628 N.pl3     1 <0>        -0.8633
     28 N5          6.7875   -2.0816   -5.5916 N.pl3     1 <0>        -0.7419
     29 N6          2.2741   -2.2179   -2.7432 N.pl3     1 <0>        -0.8860
     30 O1          2.1401   -0.8907    3.6051 O.2       1 <0>        -0.5199
     31 O2          1.7818   -0.9917   -0.6208 O.2       1 <0>        -0.6131
     32 O3          2.6686   -4.5798   -3.6918 O.2       1 <0>        -0.6576
     33 O4          0.3811   -3.5494   -3.8650 O.2       1 <0>        -0.6482
     34 O5          2.5235   -2.5830    2.1269 O.3       1 <0>        -0.6303
     35 S1          1.6226   -3.7401   -3.1398 S.o2      1 <0>         1.5193
     36 H1          2.2754   -6.8081    0.5612 H         1 <0>         0.1426
     37 H2          0.4453   -5.8762    1.9353 H         1 <0>         0.1398
     38 H3          2.7663   -5.8367   -1.6758 H         1 <0>         0.1599
     39 H4         -2.0994   -4.4781    1.2245 H         1 <0>         0.0574
     40 H5         -0.9335   -3.8165    2.3842 H         1 <0>         0.0629
     41 H6          5.1450   -2.9020    2.1525 H         1 <0>         0.0614
     42 H7          6.7810   -2.4531    1.7029 H         1 <0>         0.0593
     43 H8          5.0903    0.8874    1.6785 H         1 <0>         0.0841
     44 H9          4.2733    0.6894    3.2215 H         1 <0>         0.0679
     45 H10         5.8537   -0.9171   -0.0665 H         1 <0>         0.0826
     46 H11         5.3167   -2.5850   -0.2811 H         1 <0>         0.0383
     47 H12        -2.6365   -2.9647   -0.9116 H         1 <0>         0.0556
     48 H13        -2.0279   -1.3080   -0.9257 H         1 <0>         0.0415
     49 H14         2.7622    0.3365    1.2577 H         1 <0>         0.0851
     50 H15        -0.7654   -1.7164    1.1777 H         1 <0>         0.0639
     51 H16         5.3768   -1.3130    3.7317 H         1 <0>         0.0584
     52 H17        -2.9604   -0.8225    1.5328 H         1 <0>         0.0401
     53 H18        -3.7366   -2.3905    1.2379 H         1 <0>         0.0440
     54 H19        -2.7758   -2.1387    2.7081 H         1 <0>         0.0459
     55 H20         7.5288   -0.6354    3.8367 H         1 <0>         0.0456
     56 H21         7.6683   -0.4045    2.0831 H         1 <0>         0.0366
     57 H22         6.9087    0.8473    3.0852 H         1 <0>         0.0474
     58 H23         5.4592   -3.1007   -3.4560 H         1 <0>         0.0800
     59 H24         4.3307   -2.2553   -4.5204 H         1 <0>         0.0681
     60 H25         4.1906   -0.3664   -2.8945 H         1 <0>         0.0740
     61 H26         5.3633   -1.1575   -1.8491 H         1 <0>         0.0631
     62 H27         7.1023   -1.2161   -3.7290 H         1 <0>         0.0970
     63 H28         5.9419   -0.3800   -4.7739 H         1 <0>         0.0725
     64 H29         3.7703   -3.1244   -1.5692 H         1 <0>         0.0839
     65 H30        -0.4235   -2.4715   -2.2481 H         1 <0>         0.4531
     66 H31         7.5371   -3.2630   -7.8752 H         1 <0>         0.4798
     67 H32         6.3639   -2.4900   -8.8945 H         1 <0>         0.4881
     68 H33         4.7916   -0.5190   -6.2864 H         1 <0>         0.4801
     69 H34         4.7762   -0.9057   -7.9829 H         1 <0>         0.4806
     70 H35         7.5680   -2.7311   -5.4842 H         1 <0>         0.4689
     71 H36         1.6613   -1.3957   -2.7560 H         1 <0>         0.4505
     72 H37         2.0077   -3.1411    2.7472 H         1 <0>         0.4443
@<TRIPOS>BOND
     1    1    2 ar
     2    1    3 ar
     3    2    4 ar
     4    3    6 ar
     5    4    5 ar
     6    4   10 1
     7    5    6 ar
     8    5   24 1
     9    6   35 1
    10    7   15 1
    11    7   30 2
    12    7   34 1
    13    8   23 1
    14    8   25 am
    15    8   31 2
    16    9   26 1
    17    9   27 1
    18    9   28 1
    19   10   16 1
    20   11   13 1
    21   11   17 1
    22   12   15 1
    23   12   17 1
    24   13   25 1
    25   14   16 1
    26   14   24 1
    27   15   25 1
    28   16   18 1
    29   17   19 1
    30   20   21 1
    31   20   22 1
    32   21   23 1
    33   22   28 1
    34   23   29 1
    35   29   35 1
    36   32   35 2
    37   33   35 2
    38    1   36 1
    39    2   37 1
    40    3   38 1
    41   10   39 1
    42   10   40 1
    43   11   41 1
    44   11   42 1
    45   12   43 1
    46   12   44 1
    47   13   45 1
    48   13   46 1
    49   14   47 1
    50   14   48 1
    51   15   49 1
    52   16   50 1
    53   17   51 1
    54   18   52 1
    55   18   53 1
    56   18   54 1
    57   19   55 1
    58   19   56 1
    59   19   57 1
    60   20   58 1
    61   20   59 1
    62   21   60 1
    63   21   61 1
    64   22   62 1
    65   22   63 1
    66   23   64 1
    67   24   65 1
    68   26   66 1
    69   26   67 1
    70   27   68 1
    71   27   69 1
    72   28   70 1
    73   29   71 1
    74   34   72 1
@<TRIPOS>MOLECULE
1dwc_ligand_78
   72    74     0     0     0
SMALL
USER_CHARGES

mmff94s_NoEstat = 76.70
@<TRIPOS>ATOM
      1 C1         -1.4072   -6.2841    0.5334 C.ar      1 <0>        -0.1945
      2 C2         -0.3050   -6.5010   -0.2908 C.ar      1 <0>        -0.0294
      3 C3         -1.2178   -5.9155    1.8618 C.ar      1 <0>        -0.0143
      4 C4          0.9961   -6.3538    0.2114 C.ar      1 <0>        -0.1552
      5 C5          1.1959   -5.9530    1.5470 C.ar      1 <0>         0.3076
      6 C6          0.0742   -5.7546    2.3651 C.ar      1 <0>        -0.4908
      7 C7          0.0474   -1.6003   -0.0563 C.2       1 <0>         0.5994
      8 C8          0.8654   -1.4427    3.2413 C.2       1 <0>         0.6462
      9 C9         -5.3792    0.5120    4.1450 C.cat     1 <0>         0.6305
     10 C10         2.1776   -6.5853   -0.6996 C.3       1 <0>        -0.0319
     11 C11         2.7802    0.7752    1.0208 C.3       1 <0>        -0.0918
     12 C12         2.5085   -1.4277   -0.1368 C.3       1 <0>        -0.0841
     13 C13         1.5404    0.4804    1.8554 C.3       1 <0>         0.0870
     14 C14         3.6317   -5.8205    1.2015 C.3       1 <0>         0.2023
     15 C15         1.3165   -1.7600    0.7646 C.3       1 <0>         0.0778
     16 C16         3.4776   -6.8504    0.0772 C.3       1 <0>        -0.0746
     17 C17         2.7020    0.0809   -0.3413 C.3       1 <0>        -0.0681
     18 C18         3.5447   -8.2877    0.6061 C.3       1 <0>        -0.0944
     19 C19         3.9570    0.3602   -1.1659 C.3       1 <0>        -0.0918
     20 C20        -2.1115   -1.2711    3.3990 C.3       1 <0>        -0.1192
     21 C21        -1.3133   -2.4479    3.9716 C.3       1 <0>        -0.0916
     22 C22        -3.3821   -0.9970    4.1941 C.3       1 <0>         0.1883
     23 C23        -0.0078   -2.6730    3.2260 C.3       1 <0>         0.1952
     24 N1          2.4729   -5.8065    2.0741 N.pl3     1 <0>        -0.7670
     25 N2          1.2915   -0.9578    1.9994 N.am      1 <0>        -0.4509
     26 N3         -6.0873    1.5705    3.5854 N.pl3     1 <0>        -0.8477
     27 N4         -5.9120   -0.1549    5.2429 N.pl3     1 <0>        -0.8633
     28 N5         -4.1449    0.1056    3.6268 N.pl3     1 <0>        -0.7419
     29 N6          0.7961   -3.6905    3.9267 N.pl3     1 <0>        -0.8860
     30 O1         -0.6384   -0.5898   -0.0988 O.2       1 <0>        -0.5199
     31 O2          1.1650   -0.9321    4.3240 O.2       1 <0>        -0.6131
     32 O3         -1.1034   -5.2783    4.6370 O.2       1 <0>        -0.6576
     33 O4          1.2668   -6.1189    4.6309 O.2       1 <0>        -0.6482
     34 O5         -0.2271   -2.7383   -0.7395 O.3       1 <0>        -0.6303
     35 S1          0.2254   -5.2894    4.0556 S.o2      1 <0>         1.5193
     36 H1         -2.4130   -6.4058    0.1405 H         1 <0>         0.1426
     37 H2         -0.4624   -6.7916   -1.3268 H         1 <0>         0.1398
     38 H3         -2.0688   -5.7496    2.5150 H         1 <0>         0.1599
     39 H4          1.9762   -7.4254   -1.3755 H         1 <0>         0.0574
     40 H5          2.3035   -5.6869   -1.3173 H         1 <0>         0.0629
     41 H6          2.8818    1.8586    0.8858 H         1 <0>         0.0614
     42 H7          3.6725    0.4327    1.5603 H         1 <0>         0.0593
     43 H8          3.4165   -1.8382    0.3259 H         1 <0>         0.0841
     44 H9          2.4035   -1.9216   -1.1111 H         1 <0>         0.0679
     45 H10         1.6443    0.9520    2.8381 H         1 <0>         0.0826
     46 H11         0.6509    0.9155    1.3839 H         1 <0>         0.0383
     47 H12         4.5279   -6.0341    1.7945 H         1 <0>         0.0556
     48 H13         3.7631   -4.8203    0.7705 H         1 <0>         0.0415
     49 H14         1.3647   -2.8230    1.0210 H         1 <0>         0.0851
     50 H15         4.3197   -6.7370   -0.6165 H         1 <0>         0.0639
     51 H16         1.8454    0.4816   -0.8972 H         1 <0>         0.0584
     52 H17         2.5943   -8.8034    0.4393 H         1 <0>         0.0401
     53 H18         4.3347   -8.8481    0.0972 H         1 <0>         0.0440
     54 H19         3.7555   -8.2927    1.6797 H         1 <0>         0.0459
     55 H20         4.2296   -0.5171   -1.7602 H         1 <0>         0.0456
     56 H21         3.7904    1.1997   -1.8474 H         1 <0>         0.0366
     57 H22         4.7987    0.6086   -0.5125 H         1 <0>         0.0474
     58 H23        -1.4838   -0.3719    3.3933 H         1 <0>         0.0800
     59 H24        -2.3885   -1.4831    2.3599 H         1 <0>         0.0681
     60 H25        -1.9335   -3.3536    3.9489 H         1 <0>         0.0740
     61 H26        -1.0849   -2.2531    5.0271 H         1 <0>         0.0631
     62 H27        -3.1519   -0.7547    5.2365 H         1 <0>         0.0970
     63 H28        -4.0259   -1.8823    4.1866 H         1 <0>         0.0725
     64 H29        -0.1638   -2.9774    2.1921 H         1 <0>         0.0839
     65 H30         2.5644   -5.4443    3.0154 H         1 <0>         0.4531
     66 H31        -5.7362    2.0880    2.7841 H         1 <0>         0.4798
     67 H32        -6.9840    1.8599    3.9689 H         1 <0>         0.4881
     68 H33        -5.4209   -0.9328    5.6766 H         1 <0>         0.4801
     69 H34        -6.8078    0.1174    5.6406 H         1 <0>         0.4806
     70 H35        -3.7797    0.6144    2.8203 H         1 <0>         0.4689
     71 H36         1.8068   -3.5190    3.9555 H         1 <0>         0.4505
     72 H37        -1.0450   -2.6560   -1.2749 H         1 <0>         0.4443
@<TRIPOS>BOND
     1    1    2 ar
     2    1    3 ar
     3    2    4 ar
     4    3    6 ar
     5    4    5 ar
     6    4   10 1
     7    5    6 ar
     8    5   24 1
     9    6   35 1
    10    7   15 1
    11    7   30 2
    12    7   34 1
    13    8   23 1
    14    8   25 am
    15    8   31 2
    16    9   26 1
    17    9   27 1
    18    9   28 1
    19   10   16 1
    20   11   13 1
    21   11   17 1
    22   12   15 1
    23   12   17 1
    24   13   25 1
    25   14   16 1
    26   14   24 1
    27   15   25 1
    28   16   18 1
    29   17   19 1
    30   20   21 1
    31   20   22 1
    32   21   23 1
    33   22   28 1
    34   23   29 1
    35   29   35 1
    36   32   35 2
    37   33   35 2
    38    1   36 1
    39    2   37 1
    40    3   38 1
    41   10   39 1
    42   10   40 1
    43   11   41 1
    44   11   42 1
    45   12   43 1
    46   12   44 1
    47   13   45 1
    48   13   46 1
    49   14   47 1
    50   14   48 1
    51   15   49 1
    52   16   50 1
    53   17   51 1
    54   18   52 1
    55   18   53 1
    56   18   54 1
    57   19   55 1
    58   19   56 1
    59   19   57 1
    60   20   58 1
    61   20   59 1
    62   21   60 1
    63   21   61 1
    64   22   62 1
    65   22   63 1
    66   23   64 1
    67   24   65 1
    68   26   66 1
    69   26   67 1
    70   27   68 1
    71   27   69 1
    72   28   70 1
    73   29   71 1
    74   34   72 1
@<TRIPOS>MOLECULE
1dwc_ligand_79
   72    74     0     0     0
SMALL
USER_CHARGES

mmff94s_NoEstat = 76.72
@<TRIPOS>ATOM
      1 C1          1.6845   -5.9778    0.1844 C.ar      1 <0>        -0.1945
      2 C2          0.6520   -5.4496    0.9566 C.ar      1 <0>        -0.0294
      3 C3          1.9606   -5.4374   -1.0681 C.ar      1 <0>        -0.0143
      4 C4         -0.1093   -4.3725    0.4806 C.ar      1 <0>        -0.1552
      5 C5          0.1450   -3.8386   -0.7984 C.ar      1 <0>         0.3076
      6 C6          1.1982   -4.3739   -1.5539 C.ar      1 <0>        -0.4908
      7 C7          1.8102   -1.5505    2.3702 C.2       1 <0>         0.5994
      8 C8          2.9466   -1.3973   -0.6457 C.2       1 <0>         0.6462
      9 C9          5.5099    2.9416   -5.0187 C.cat     1 <0>         0.6305
     10 C10        -1.2292   -3.8175    1.3278 C.3       1 <0>        -0.0319
     11 C11         4.4920   -3.4807    2.0801 C.3       1 <0>        -0.0918
     12 C12         4.1798   -1.0721    2.8769 C.3       1 <0>        -0.0841
     13 C13         4.5658   -2.7774    0.7291 C.3       1 <0>         0.0870
     14 C14        -1.7931   -2.3309   -0.6108 C.3       1 <0>         0.2023
     15 C15         3.1125   -1.0286    1.7861 C.3       1 <0>         0.0778
     16 C16        -1.5940   -2.3850    0.9075 C.3       1 <0>        -0.0746
     17 C17         4.5869   -2.5050    3.2643 C.3       1 <0>        -0.0681
     18 C18        -2.8431   -1.9049    1.6414 C.3       1 <0>        -0.0944
     19 C19         5.9882   -2.5079    3.8779 C.3       1 <0>        -0.0918
     20 C20         4.0666    0.0061   -3.0917 C.3       1 <0>        -0.1192
     21 C21         4.5564   -1.3488   -2.5679 C.3       1 <0>        -0.0916
     22 C22         5.1498    0.7503   -3.8628 C.3       1 <0>         0.1883
     23 C23         3.4544   -2.1251   -1.8653 C.3       1 <0>         0.1952
     24 N1         -0.5924   -2.7711   -1.2958 N.pl3     1 <0>        -0.7670
     25 N2          3.5192   -1.7560    0.5781 N.am      1 <0>        -0.4509
     26 N3          5.0373    4.1732   -5.4600 N.pl3     1 <0>        -0.8477
     27 N4          6.8343    2.5959   -5.2649 N.pl3     1 <0>        -0.8633
     28 N5          4.6819    2.0459   -4.3336 N.pl3     1 <0>        -0.7419
     29 N6          2.2741   -2.2179   -2.7432 N.pl3     1 <0>        -0.8860
     30 O1          1.4308   -2.7108    2.3137 O.2       1 <0>        -0.5199
     31 O2          2.0685   -0.5400   -0.7710 O.2       1 <0>        -0.6131
     32 O3          2.6686   -4.5798   -3.6918 O.2       1 <0>        -0.6576
     33 O4          0.3811   -3.5494   -3.8650 O.2       1 <0>        -0.6482
     34 O5          1.1172   -0.5491    2.9655 O.3       1 <0>        -0.6303
     35 S1          1.6226   -3.7401   -3.1398 S.o2      1 <0>         1.5193
     36 H1          2.2754   -6.8081    0.5612 H         1 <0>         0.1426
     37 H2          0.4453   -5.8762    1.9353 H         1 <0>         0.1398
     38 H3          2.7663   -5.8367   -1.6758 H         1 <0>         0.1599
     39 H4         -2.0994   -4.4781    1.2245 H         1 <0>         0.0574
     40 H5         -0.9335   -3.8165    2.3842 H         1 <0>         0.0629
     41 H6          3.5311   -4.0088    2.1410 H         1 <0>         0.0614
     42 H7          5.2694   -4.2509    2.1463 H         1 <0>         0.0593
     43 H8          5.0641   -0.5305    2.5137 H         1 <0>         0.0841
     44 H9          3.8399   -0.5392    3.7741 H         1 <0>         0.0679
     45 H10         5.5312   -2.2723    0.6079 H         1 <0>         0.0826
     46 H11         4.4795   -3.5150   -0.0747 H         1 <0>         0.0383
     47 H12        -2.6365   -2.9647   -0.9116 H         1 <0>         0.0556
     48 H13        -2.0279   -1.3080   -0.9257 H         1 <0>         0.0415
     49 H14         2.9188    0.0160    1.5141 H         1 <0>         0.0851
     50 H15        -0.7654   -1.7164    1.1777 H         1 <0>         0.0639
     51 H16         3.9047   -2.8651    4.0450 H         1 <0>         0.0584
     52 H17        -2.9604   -0.8225    1.5328 H         1 <0>         0.0401
     53 H18        -3.7366   -2.3905    1.2379 H         1 <0>         0.0440
     54 H19        -2.7758   -2.1387    2.7081 H         1 <0>         0.0459
     55 H20         6.0310   -3.1862    4.7353 H         1 <0>         0.0456
     56 H21         6.7293   -2.8350    3.1425 H         1 <0>         0.0366
     57 H22         6.2606   -1.5045    4.2187 H         1 <0>         0.0474
     58 H23         3.1961   -0.1462   -3.7411 H         1 <0>         0.0800
     59 H24         3.7428    0.6319   -2.2522 H         1 <0>         0.0681
     60 H25         5.4094   -1.1917   -1.8946 H         1 <0>         0.0740
     61 H26         4.9285   -1.9502   -3.4070 H         1 <0>         0.0631
     62 H27         5.4874    0.1718   -4.7286 H         1 <0>         0.0970
     63 H28         6.0148    0.9268   -3.2156 H         1 <0>         0.0725
     64 H29         3.7703   -3.1244   -1.5692 H         1 <0>         0.0839
     65 H30        -0.4235   -2.4715   -2.2481 H         1 <0>         0.4531
     66 H31         4.0769    4.4674   -5.3045 H         1 <0>         0.4798
     67 H32         5.6462    4.8184   -5.9581 H         1 <0>         0.4881
     68 H33         7.2124    1.7035   -4.9563 H         1 <0>         0.4801
     69 H34         7.4600    3.2272   -5.7595 H         1 <0>         0.4806
     70 H35         3.7146    2.3280   -4.1678 H         1 <0>         0.4689
     71 H36         1.6613   -1.3957   -2.7560 H         1 <0>         0.4505
     72 H37         0.2712   -0.8659    3.3478 H         1 <0>         0.4443
@<TRIPOS>BOND
     1    1    2 ar
     2    1    3 ar
     3    2    4 ar
     4    3    6 ar
     5    4    5 ar
     6    4   10 1
     7    5    6 ar
     8    5   24 1
     9    6   35 1
    10    7   15 1
    11    7   30 2
    12    7   34 1
    13    8   23 1
    14    8   25 am
    15    8   31 2
    16    9   26 1
    17    9   27 1
    18    9   28 1
    19   10   16 1
    20   11   13 1
    21   11   17 1
    22   12   15 1
    23   12   17 1
    24   13   25 1
    25   14   16 1
    26   14   24 1
    27   15   25 1
    28   16   18 1
    29   17   19 1
    30   20   21 1
    31   20   22 1
    32   21   23 1
    33   22   28 1
    34   23   29 1
    35   29   35 1
    36   32   35 2
    37   33   35 2
    38    1   36 1
    39    2   37 1
    40    3   38 1
    41   10   39 1
    42   10   40 1
    43   11   41 1
    44   11   42 1
    45   12   43 1
    46   12   44 1
    47   13   45 1
    48   13   46 1
    49   14   47 1
    50   14   48 1
    51   15   49 1
    52   16   50 1
    53   17   51 1
    54   18   52 1
    55   18   53 1
    56   18   54 1
    57   19   55 1
    58   19   56 1
    59   19   57 1
    60   20   58 1
    61   20   59 1
    62   21   60 1
    63   21   61 1
    64   22   62 1
    65   22   63 1
    66   23   64 1
    67   24   65 1
    68   26   66 1
    69   26   67 1
    70   27   68 1
    71   27   69 1
    72   28   70 1
    73   29   71 1
    74   34   72 1
@<TRIPOS>MOLECULE
1dwc_ligand_80
   72    74     0     0     0
SMALL
USER_CHARGES

mmff94s_NoEstat = 76.72
@<TRIPOS>ATOM
      1 C1          0.6009   -5.4402   -0.5450 C.ar      1 <0>        -0.1945
      2 C2          1.9177   -5.1745   -0.9146 C.ar      1 <0>        -0.0294
      3 C3          0.2538   -5.4826    0.8019 C.ar      1 <0>        -0.0143
      4 C4          2.8980   -4.9531    0.0635 C.ar      1 <0>        -0.1552
      5 C5          2.5489   -4.9659    1.4281 C.ar      1 <0>         0.3076
      6 C6          1.2217   -5.2505    1.7807 C.ar      1 <0>        -0.4908
      7 C7         -0.2549    0.4306    0.6330 C.2       1 <0>         0.5994
      8 C8          0.8654   -1.4427    3.2413 C.2       1 <0>         0.6462
      9 C9         -2.8213    0.6638    5.9816 C.cat     1 <0>         0.6305
     10 C10         4.3179   -4.6587   -0.3572 C.3       1 <0>        -0.0319
     11 C11         3.3665   -0.6443    0.6676 C.3       1 <0>        -0.0918
     12 C12         1.2181   -1.2005   -0.4907 C.3       1 <0>        -0.0841
     13 C13         2.5847   -0.2704    1.9206 C.3       1 <0>         0.0870
     14 C14         4.8245   -4.2772    2.0742 C.3       1 <0>         0.2023
     15 C15         0.4427   -0.9096    0.7969 C.3       1 <0>         0.0778
     16 C16         5.3306   -4.9077    0.7723 C.3       1 <0>        -0.0746
     17 C17         2.5288   -0.4088   -0.5919 C.3       1 <0>        -0.0681
     18 C18         5.6414   -6.3991    0.9431 C.3       1 <0>        -0.0944
     19 C19         3.3078   -0.8065   -1.8442 C.3       1 <0>        -0.0918
     20 C20        -2.1115   -1.2711    3.3990 C.3       1 <0>        -0.1192
     21 C21        -1.3133   -2.4479    3.9716 C.3       1 <0>        -0.0916
     22 C22        -3.3821   -0.9970    4.1941 C.3       1 <0>         0.1883
     23 C23        -0.0078   -2.6730    3.2260 C.3       1 <0>         0.1952
     24 N1          3.4999   -4.7575    2.4193 N.pl3     1 <0>        -0.7670
     25 N2          1.2915   -0.9578    1.9994 N.am      1 <0>        -0.4509
     26 N3         -2.5447    0.9705    7.3098 N.pl3     1 <0>        -0.8477
     27 N4         -2.8329    1.6855    5.0381 N.pl3     1 <0>        -0.8633
     28 N5         -3.0875   -0.6486    5.5765 N.pl3     1 <0>        -0.7419
     29 N6          0.7961   -3.6905    3.9267 N.pl3     1 <0>        -0.8860
     30 O1          0.1931    1.5051    1.0045 O.2       1 <0>        -0.5199
     31 O2          1.1650   -0.9321    4.3240 O.2       1 <0>        -0.6131
     32 O3         -0.6876   -5.7475    3.4786 O.2       1 <0>        -0.6576
     33 O4          1.7036   -6.0834    4.1813 O.2       1 <0>        -0.6482
     34 O5         -1.4521    0.2749    0.0168 O.3       1 <0>        -0.6303
     35 S1          0.6998   -5.3249    3.4597 S.o2      1 <0>         1.5193
     36 H1         -0.1532   -5.6173   -1.3071 H         1 <0>         0.1426
     37 H2          2.1805   -5.1462   -1.9695 H         1 <0>         0.1398
     38 H3         -0.7676   -5.6946    1.1020 H         1 <0>         0.1599
     39 H4          4.5872   -5.2635   -1.2316 H         1 <0>         0.0574
     40 H5          4.3648   -3.6041   -0.6574 H         1 <0>         0.0629
     41 H6          4.2893   -0.0541    0.6219 H         1 <0>         0.0614
     42 H7          3.6617   -1.6999    0.7239 H         1 <0>         0.0593
     43 H8          1.4535   -2.2733   -0.5175 H         1 <0>         0.0841
     44 H9          0.5944   -0.9953   -1.3701 H         1 <0>         0.0679
     45 H10         3.1909   -0.4908    2.8053 H         1 <0>         0.0826
     46 H11         2.3782    0.8066    1.9340 H         1 <0>         0.0383
     47 H12         5.5138   -4.4958    2.8973 H         1 <0>         0.0556
     48 H13         4.7892   -3.1861    1.9666 H         1 <0>         0.0415
     49 H14        -0.3616   -1.6465    0.8882 H         1 <0>         0.0851
     50 H15         6.2762   -4.4249    0.4964 H         1 <0>         0.0639
     51 H16         2.2982    0.6607   -0.6719 H         1 <0>         0.0584
     52 H17         4.9808   -7.0038    0.3146 H         1 <0>         0.0401
     53 H18         6.6765   -6.6112    0.6589 H         1 <0>         0.0440
     54 H19         5.5005   -6.7043    1.9843 H         1 <0>         0.0459
     55 H20         2.6382   -1.2449   -2.5902 H         1 <0>         0.0456
     56 H21         3.7937    0.0674   -2.2885 H         1 <0>         0.0366
     57 H22         4.0794   -1.5424   -1.5992 H         1 <0>         0.0474
     58 H23        -1.4838   -0.3719    3.3933 H         1 <0>         0.0800
     59 H24        -2.3885   -1.4831    2.3599 H         1 <0>         0.0681
     60 H25        -1.9335   -3.3536    3.9489 H         1 <0>         0.0740
     61 H26        -1.0849   -2.2531    5.0271 H         1 <0>         0.0631
     62 H27        -4.0449   -1.8681    4.1933 H         1 <0>         0.0970
     63 H28        -3.9265   -0.1572    3.7507 H         1 <0>         0.0725
     64 H29        -0.1638   -2.9774    2.1921 H         1 <0>         0.0839
     65 H30         3.1862   -4.7016    3.3805 H         1 <0>         0.4531
     66 H31        -2.5273    0.2572    8.0338 H         1 <0>         0.4798
     67 H32        -2.3528    1.9278    7.5960 H         1 <0>         0.4881
     68 H33        -3.0315    1.4965    4.0587 H         1 <0>         0.4801
     69 H34        -2.6420    2.6489    5.3029 H         1 <0>         0.4806
     70 H35        -3.0717   -1.3769    6.2920 H         1 <0>         0.4689
     71 H36         1.6533   -3.3509    4.3757 H         1 <0>         0.4505
     72 H37        -1.9197    1.1298   -0.0968 H         1 <0>         0.4443
@<TRIPOS>BOND
     1    1    2 ar
     2    1    3 ar
     3    2    4 ar
     4    3    6 ar
     5    4    5 ar
     6    4   10 1
     7    5    6 ar
     8    5   24 1
     9    6   35 1
    10    7   15 1
    11    7   30 2
    12    7   34 1
    13    8   23 1
    14    8   25 am
    15    8   31 2
    16    9   26 1
    17    9   27 1
    18    9   28 1
    19   10   16 1
    20   11   13 1
    21   11   17 1
    22   12   15 1
    23   12   17 1
    24   13   25 1
    25   14   16 1
    26   14   24 1
    27   15   25 1
    28   16   18 1
    29   17   19 1
    30   20   21 1
    31   20   22 1
    32   21   23 1
    33   22   28 1
    34   23   29 1
    35   29   35 1
    36   32   35 2
    37   33   35 2
    38    1   36 1
    39    2   37 1
    40    3   38 1
    41   10   39 1
    42   10   40 1
    43   11   41 1
    44   11   42 1
    45   12   43 1
    46   12   44 1
    47   13   45 1
    48   13   46 1
    49   14   47 1
    50   14   48 1
    51   15   49 1
    52   16   50 1
    53   17   51 1
    54   18   52 1
    55   18   53 1
    56   18   54 1
    57   19   55 1
    58   19   56 1
    59   19   57 1
    60   20   58 1
    61   20   59 1
    62   21   60 1
    63   21   61 1
    64   22   62 1
    65   22   63 1
    66   23   64 1
    67   24   65 1
    68   26   66 1
    69   26   67 1
    70   27   68 1
    71   27   69 1
    72   28   70 1
    73   29   71 1
    74   34   72 1
@<TRIPOS>MOLECULE
1dwc_ligand_81
   72    74     0     0     0
SMALL
USER_CHARGES

mmff94s_NoEstat = 76.73
@<TRIPOS>ATOM
      1 C1          6.6815    0.2584   -4.3460 C.ar      1 <0>        -0.1945
      2 C2          7.2694    1.0767   -3.3837 C.ar      1 <0>        -0.0294
      3 C3          6.2905   -1.0346   -4.0116 C.ar      1 <0>        -0.0143
      4 C4          7.4734    0.6037   -2.0794 C.ar      1 <0>        -0.1552
      5 C5          7.0542   -0.6937   -1.7254 C.ar      1 <0>         0.3076
      6 C6          6.4787   -1.5076   -2.7119 C.ar      1 <0>        -0.4908
      7 C7          2.8752    1.3115    1.1058 C.2       1 <0>         0.5994
      8 C8          2.9466   -1.3973   -0.6457 C.2       1 <0>         0.6462
      9 C9         -1.2208   -5.2227   -3.0846 C.cat     1 <0>         0.6305
     10 C10         8.1045    1.5084   -1.0484 C.3       1 <0>        -0.0319
     11 C11         2.3641    2.0271   -2.0925 C.3       1 <0>        -0.0918
     12 C12         0.7649    1.6065   -0.1433 C.3       1 <0>        -0.0841
     13 C13         2.2856    0.5067   -2.1800 C.3       1 <0>         0.0870
     14 C14         7.6643   -0.3086    0.6304 C.3       1 <0>         0.2023
     15 C15         1.8211    0.5897    0.2827 C.3       1 <0>         0.0778
     16 C16         8.6818    0.7294    0.1447 C.3       1 <0>        -0.0746
     17 C17         1.2898    2.6259   -1.1701 C.3       1 <0>        -0.0681
     18 C18        10.0343    0.0904   -0.1902 C.3       1 <0>        -0.0944
     19 C19         0.1276    3.2108   -1.9746 C.3       1 <0>        -0.0918
     20 C20         2.0376   -4.1819   -1.4375 C.3       1 <0>        -0.1192
     21 C21         2.4114   -3.0756   -2.4306 C.3       1 <0>        -0.0916
     22 C22         1.0502   -5.1786   -2.0318 C.3       1 <0>         0.1883
     23 C23         3.4544   -2.1251   -1.8653 C.3       1 <0>         0.1952
     24 N1          7.2500   -1.1918   -0.4434 N.pl3     1 <0>        -0.7670
     25 N2          2.3949   -0.1309   -0.8598 N.am      1 <0>        -0.4509
     26 N3         -2.3889   -4.5781   -3.4783 N.pl3     1 <0>        -0.8477
     27 N4         -1.0858   -6.5863   -3.3223 N.pl3     1 <0>        -0.8633
     28 N5         -0.1815   -4.5286   -2.4559 N.pl3     1 <0>        -0.7419
     29 N6          4.6097   -2.8934   -1.3678 N.pl3     1 <0>        -0.8860
     30 O1          2.6539    1.9546    2.1211 O.2       1 <0>        -0.5199
     31 O2          3.0377   -1.9312    0.4627 O.2       1 <0>        -0.6131
     32 O3          5.5181   -3.7497   -3.6206 O.2       1 <0>        -0.6576
     33 O4          7.0129   -3.7800   -1.5984 O.2       1 <0>        -0.6482
     34 O5          4.1045    1.1486    0.5584 O.3       1 <0>        -0.6303
     35 S1          5.9585   -3.1544   -2.3734 S.o2      1 <0>         1.5193
     36 H1          6.5316    0.6279   -5.3569 H         1 <0>         0.1426
     37 H2          7.5745    2.0846   -3.6547 H         1 <0>         0.1398
     38 H3          5.8369   -1.6833   -4.7545 H         1 <0>         0.1599
     39 H4          8.8950    2.1138   -1.5086 H         1 <0>         0.0574
     40 H5          7.3286    2.1962   -0.6886 H         1 <0>         0.0629
     41 H6          3.3521    2.2982   -1.6971 H         1 <0>         0.0614
     42 H7          2.3049    2.4652   -3.0956 H         1 <0>         0.0593
     43 H8         -0.0830    1.0592   -0.5778 H         1 <0>         0.0841
     44 H9          0.3696    2.1440    0.7282 H         1 <0>         0.0679
     45 H10         1.3285    0.1928   -2.6129 H         1 <0>         0.0826
     46 H11         3.0787    0.1346   -2.8358 H         1 <0>         0.0383
     47 H12         8.0876   -0.9053    1.4460 H         1 <0>         0.0556
     48 H13         6.7797    0.2011    1.0315 H         1 <0>         0.0415
     49 H14         1.3638   -0.1412    0.9605 H         1 <0>         0.0851
     50 H15         8.8692    1.4404    0.9588 H         1 <0>         0.0639
     51 H16         1.7477    3.4645   -0.6301 H         1 <0>         0.0584
     52 H17        10.2603    0.2043   -1.2546 H         1 <0>         0.0401
     53 H18        10.8360    0.5635    0.3848 H         1 <0>         0.0440
     54 H19        10.0241   -0.9776    0.0473 H         1 <0>         0.0459
     55 H20         0.4103    4.1714   -2.4154 H         1 <0>         0.0456
     56 H21        -0.1604    2.5322   -2.7831 H         1 <0>         0.0366
     57 H22        -0.7432    3.3698   -1.3317 H         1 <0>         0.0474
     58 H23         2.9446   -4.7113   -1.1217 H         1 <0>         0.0800
     59 H24         1.5893   -3.7381   -0.5411 H         1 <0>         0.0681
     60 H25         1.5058   -2.5277   -2.7226 H         1 <0>         0.0740
     61 H26         2.8104   -3.5289   -3.3468 H         1 <0>         0.0631
     62 H27         0.7947   -5.9607   -1.3098 H         1 <0>         0.0970
     63 H28         1.4892   -5.6603   -2.9113 H         1 <0>         0.0725
     64 H29         3.7902   -1.3903   -2.5956 H         1 <0>         0.0839
     65 H30         6.8641   -2.1005   -0.2179 H         1 <0>         0.4531
     66 H31        -2.5325   -3.5838   -3.3234 H         1 <0>         0.4798
     67 H32        -3.1402   -5.0906   -3.9344 H         1 <0>         0.4881
     68 H33        -0.2453   -7.0887   -3.0475 H         1 <0>         0.4801
     69 H34        -1.8241   -7.1168   -3.7785 H         1 <0>         0.4806
     70 H35        -0.3098   -3.5285   -2.2950 H         1 <0>         0.4689
     71 H36         4.7395   -2.8961   -0.3505 H         1 <0>         0.4505
     72 H37         4.7996    1.6094    1.0749 H         1 <0>         0.4443
@<TRIPOS>BOND
     1    1    2 ar
     2    1    3 ar
     3    2    4 ar
     4    3    6 ar
     5    4    5 ar
     6    4   10 1
     7    5    6 ar
     8    5   24 1
     9    6   35 1
    10    7   15 1
    11    7   30 2
    12    7   34 1
    13    8   23 1
    14    8   25 am
    15    8   31 2
    16    9   26 1
    17    9   27 1
    18    9   28 1
    19   10   16 1
    20   11   13 1
    21   11   17 1
    22   12   15 1
    23   12   17 1
    24   13   25 1
    25   14   16 1
    26   14   24 1
    27   15   25 1
    28   16   18 1
    29   17   19 1
    30   20   21 1
    31   20   22 1
    32   21   23 1
    33   22   28 1
    34   23   29 1
    35   29   35 1
    36   32   35 2
    37   33   35 2
    38    1   36 1
    39    2   37 1
    40    3   38 1
    41   10   39 1
    42   10   40 1
    43   11   41 1
    44   11   42 1
    45   12   43 1
    46   12   44 1
    47   13   45 1
    48   13   46 1
    49   14   47 1
    50   14   48 1
    51   15   49 1
    52   16   50 1
    53   17   51 1
    54   18   52 1
    55   18   53 1
    56   18   54 1
    57   19   55 1
    58   19   56 1
    59   19   57 1
    60   20   58 1
    61   20   59 1
    62   21   60 1
    63   21   61 1
    64   22   62 1
    65   22   63 1
    66   23   64 1
    67   24   65 1
    68   26   66 1
    69   26   67 1
    70   27   68 1
    71   27   69 1
    72   28   70 1
    73   29   71 1
    74   34   72 1
@<TRIPOS>MOLECULE
1dwc_ligand_82
   72    74     0     0     0
SMALL
USER_CHARGES

mmff94s_NoEstat = 76.74
@<TRIPOS>ATOM
      1 C1         -1.5516   -4.4277    7.3298 C.ar      1 <0>        -0.1945
      2 C2         -2.3348   -5.5104    6.9352 C.ar      1 <0>        -0.0294
      3 C3         -1.5385   -3.2654    6.5644 C.ar      1 <0>        -0.0143
      4 C4         -3.1142   -5.4347    5.7720 C.ar      1 <0>        -0.1552
      5 C5         -3.0840   -4.2723    4.9761 C.ar      1 <0>         0.3076
      6 C6         -2.3015   -3.1877    5.3982 C.ar      1 <0>        -0.4908
      7 C7          3.5686   -3.4379    3.7704 C.2       1 <0>         0.5994
      8 C8          0.8654   -1.4427    3.2413 C.2       1 <0>         0.6462
      9 C9          2.0746   -5.2044   -1.4852 C.cat     1 <0>         0.6305
     10 C10        -3.9512   -6.6204    5.3554 C.3       1 <0>        -0.0319
     11 C11         3.4440   -0.0674    5.4719 C.3       1 <0>        -0.0918
     12 C12         3.1682   -2.4952    6.0163 C.3       1 <0>        -0.0841
     13 C13         2.9000   -0.3276    4.0730 C.3       1 <0>         0.0870
     14 C14        -4.5113   -5.3376    3.2753 C.3       1 <0>         0.2023
     15 C15         2.5392   -2.7371    4.6417 C.3       1 <0>         0.0778
     16 C16        -5.0831   -6.2018    4.4040 C.3       1 <0>        -0.0746
     17 C17         4.1435   -1.3104    6.0281 C.3       1 <0>        -0.0681
     18 C18        -5.8039   -7.4257    3.8454 C.3       1 <0>        -0.0944
     19 C19         4.6673   -1.0527    7.4396 C.3       1 <0>        -0.0918
     20 C20         0.0249   -2.8727    0.7002 C.3       1 <0>        -0.1192
     21 C21         0.3004   -3.5693    2.0376 C.3       1 <0>        -0.0916
     22 C22         0.2602   -3.7963   -0.4886 C.3       1 <0>         0.1883
     23 C23        -0.0078   -2.6730    3.2260 C.3       1 <0>         0.1952
     24 N1         -3.8463   -4.1684    3.8190 N.pl3     1 <0>        -0.7670
     25 N2          2.0252   -1.5038    4.0223 N.am      1 <0>        -0.4509
     26 N3          3.3877   -5.6631   -1.4955 N.pl3     1 <0>        -0.8477
     27 N4          1.1890   -5.6621   -2.4548 N.pl3     1 <0>        -0.8633
     28 N5          1.6278   -4.2942   -0.5212 N.pl3     1 <0>        -0.7419
     29 N6         -1.3760   -2.1385    3.1042 N.pl3     1 <0>        -0.8860
     30 O1          4.3335   -2.8779    2.9993 O.2       1 <0>        -0.5199
     31 O2          0.5240   -0.4555    2.5844 O.2       1 <0>        -0.6131
     32 O3         -3.5960   -1.3232    4.1243 O.2       1 <0>        -0.6576
     33 O4         -1.4314   -0.7555    5.2719 O.2       1 <0>        -0.6482
     34 O5          3.5241   -4.7791    3.9616 O.3       1 <0>        -0.6303
     35 S1         -2.2397   -1.6774    4.4970 S.o2      1 <0>         1.5193
     36 H1         -0.9549   -4.4896    8.2356 H         1 <0>         0.1426
     37 H2         -2.3412   -6.4135    7.5409 H         1 <0>         0.1398
     38 H3         -0.9370   -2.4135    6.8653 H         1 <0>         0.1599
     39 H4         -3.2943   -7.3516    4.8675 H         1 <0>         0.0574
     40 H5         -4.3865   -7.1001    6.2407 H         1 <0>         0.0629
     41 H6          4.1435    0.7764    5.4419 H         1 <0>         0.0614
     42 H7          2.6191    0.2214    6.1357 H         1 <0>         0.0593
     43 H8          2.3618   -2.2928    6.7345 H         1 <0>         0.0841
     44 H9          3.6813   -3.3988    6.3690 H         1 <0>         0.0679
     45 H10         2.3679    0.5618    3.7197 H         1 <0>         0.0826
     46 H11         3.7232   -0.5081    3.3711 H         1 <0>         0.0383
     47 H12        -3.7986   -5.9137    2.6721 H         1 <0>         0.0556
     48 H13        -5.3138   -5.0110    2.6047 H         1 <0>         0.0415
     49 H14         1.7211   -3.4548    4.7590 H         1 <0>         0.0851
     50 H15        -5.8148   -5.6064    4.9667 H         1 <0>         0.0639
     51 H16         5.0063   -1.5479    5.3937 H         1 <0>         0.0584
     52 H17        -6.7464   -7.1341    3.3725 H         1 <0>         0.0401
     53 H18        -5.1841   -7.9286    3.0971 H         1 <0>         0.0440
     54 H19        -6.0259   -8.1390    4.6448 H         1 <0>         0.0459
     55 H20         4.2777   -1.8006    8.1367 H         1 <0>         0.0456
     56 H21         5.7602   -1.1000    7.4588 H         1 <0>         0.0366
     57 H22         4.3590   -0.0627    7.7891 H         1 <0>         0.0474
     58 H23        -1.0105   -2.5120    0.6824 H         1 <0>         0.0800
     59 H24         0.6776   -1.9980    0.5976 H         1 <0>         0.0681
     60 H25         1.3460   -3.9033    2.0652 H         1 <0>         0.0740
     61 H26        -0.3175   -4.4733    2.1109 H         1 <0>         0.0631
     62 H27         0.0590   -3.2831   -1.4342 H         1 <0>         0.0970
     63 H28        -0.4054   -4.6631   -0.4257 H         1 <0>         0.0725
     64 H29         0.1003   -3.1895    4.1787 H         1 <0>         0.0839
     65 H30        -3.7341   -3.3447    3.2409 H         1 <0>         0.4531
     66 H31         4.0702   -5.3548   -0.8082 H         1 <0>         0.4798
     67 H32         3.7046   -6.3246   -2.2006 H         1 <0>         0.4881
     68 H33         0.2221   -5.3473   -2.4765 H         1 <0>         0.4801
     69 H34         1.4849   -6.3248   -3.1675 H         1 <0>         0.4806
     70 H35         2.3012   -3.9765    0.1776 H         1 <0>         0.4689
     71 H36        -1.6042   -1.6955    2.2078 H         1 <0>         0.4505
     72 H37         4.1809   -5.2504    3.4059 H         1 <0>         0.4443
@<TRIPOS>BOND
     1    1    2 ar
     2    1    3 ar
     3    2    4 ar
     4    3    6 ar
     5    4    5 ar
     6    4   10 1
     7    5    6 ar
     8    5   24 1
     9    6   35 1
    10    7   15 1
    11    7   30 2
    12    7   34 1
    13    8   23 1
    14    8   25 am
    15    8   31 2
    16    9   26 1
    17    9   27 1
    18    9   28 1
    19   10   16 1
    20   11   13 1
    21   11   17 1
    22   12   15 1
    23   12   17 1
    24   13   25 1
    25   14   16 1
    26   14   24 1
    27   15   25 1
    28   16   18 1
    29   17   19 1
    30   20   21 1
    31   20   22 1
    32   21   23 1
    33   22   28 1
    34   23   29 1
    35   29   35 1
    36   32   35 2
    37   33   35 2
    38    1   36 1
    39    2   37 1
    40    3   38 1
    41   10   39 1
    42   10   40 1
    43   11   41 1
    44   11   42 1
    45   12   43 1
    46   12   44 1
    47   13   45 1
    48   13   46 1
    49   14   47 1
    50   14   48 1
    51   15   49 1
    52   16   50 1
    53   17   51 1
    54   18   52 1
    55   18   53 1
    56   18   54 1
    57   19   55 1
    58   19   56 1
    59   19   57 1
    60   20   58 1
    61   20   59 1
    62   21   60 1
    63   21   61 1
    64   22   62 1
    65   22   63 1
    66   23   64 1
    67   24   65 1
    68   26   66 1
    69   26   67 1
    70   27   68 1
    71   27   69 1
    72   28   70 1
    73   29   71 1
    74   34   72 1
@<TRIPOS>MOLECULE
1dwc_ligand_83
   72    74     0     0     0
SMALL
USER_CHARGES

mmff94s_NoEstat = 76.76
@<TRIPOS>ATOM
      1 C1         -1.3760   -0.0831    7.4437 C.ar      1 <0>        -0.1945
      2 C2         -1.7166    1.2052    7.0370 C.ar      1 <0>        -0.0294
      3 C3         -1.6287   -1.1649    6.6053 C.ar      1 <0>        -0.0143
      4 C4         -2.3098    1.4195    5.7846 C.ar      1 <0>        -0.1552
      5 C5         -2.5954    0.3267    4.9421 C.ar      1 <0>         0.3076
      6 C6         -2.2310   -0.9605    5.3628 C.ar      1 <0>        -0.4908
      7 C7          3.5686   -3.4379    3.7704 C.2       1 <0>         0.5994
      8 C8          0.8654   -1.4427    3.2413 C.2       1 <0>         0.6462
      9 C9         -1.9037   -4.9458   -1.0028 C.cat     1 <0>         0.6305
     10 C10        -2.6790    2.8217    5.3633 C.3       1 <0>        -0.0319
     11 C11         3.4440   -0.0674    5.4719 C.3       1 <0>        -0.0918
     12 C12         3.1682   -2.4952    6.0163 C.3       1 <0>        -0.0841
     13 C13         2.9000   -0.3276    4.0730 C.3       1 <0>         0.0870
     14 C14        -3.7276    1.8014    3.3273 C.3       1 <0>         0.2023
     15 C15         2.5392   -2.7371    4.6417 C.3       1 <0>         0.0778
     16 C16        -2.8246    2.9293    3.8373 C.3       1 <0>        -0.0746
     17 C17         4.1435   -1.3104    6.0281 C.3       1 <0>        -0.0681
     18 C18        -3.3763    4.2954    3.4390 C.3       1 <0>        -0.0944
     19 C19         4.6673   -1.0527    7.4396 C.3       1 <0>        -0.0918
     20 C20         0.0249   -2.8727    0.7002 C.3       1 <0>        -0.1192
     21 C21         0.3004   -3.5693    2.0376 C.3       1 <0>        -0.0916
     22 C22         0.2602   -3.7963   -0.4886 C.3       1 <0>         0.1883
     23 C23        -0.0078   -2.6730    3.2260 C.3       1 <0>         0.1952
     24 N1         -3.1817    0.5088    3.6957 N.pl3     1 <0>        -0.7670
     25 N2          2.0252   -1.5038    4.0223 N.am      1 <0>        -0.4509
     26 N3         -2.7225   -6.0692   -0.9554 N.pl3     1 <0>        -0.8477
     27 N4         -2.3754   -3.7883   -1.6126 N.pl3     1 <0>        -0.8633
     28 N5         -0.6182   -4.9567   -0.4508 N.pl3     1 <0>        -0.7419
     29 N6         -1.3760   -2.1385    3.1042 N.pl3     1 <0>        -0.8860
     30 O1          4.3335   -2.8779    2.9993 O.2       1 <0>        -0.5199
     31 O2          0.5240   -0.4555    2.5844 O.2       1 <0>        -0.6131
     32 O3         -2.1204   -3.5503    5.1256 O.2       1 <0>        -0.6576
     33 O4         -3.8433   -2.2664    3.8188 O.2       1 <0>        -0.6482
     34 O5          3.5241   -4.7791    3.9616 O.3       1 <0>        -0.6303
     35 S1         -2.5018   -2.3799    4.3583 S.o2      1 <0>         1.5193
     36 H1         -0.9105   -0.2425    8.4124 H         1 <0>         0.1426
     37 H2         -1.5128    2.0448    7.6973 H         1 <0>         0.1398
     38 H3         -1.3622   -2.1723    6.9089 H         1 <0>         0.1599
     39 H4         -3.6215    3.0926    5.8559 H         1 <0>         0.0574
     40 H5         -1.9103    3.5280    5.7005 H         1 <0>         0.0629
     41 H6          4.1435    0.7764    5.4419 H         1 <0>         0.0614
     42 H7          2.6191    0.2214    6.1357 H         1 <0>         0.0593
     43 H8          2.3618   -2.2928    6.7345 H         1 <0>         0.0841
     44 H9          3.6813   -3.3988    6.3690 H         1 <0>         0.0679
     45 H10         2.3679    0.5618    3.7197 H         1 <0>         0.0826
     46 H11         3.7232   -0.5081    3.3711 H         1 <0>         0.0383
     47 H12        -4.7388    1.9004    3.7412 H         1 <0>         0.0556
     48 H13        -3.8175    1.8521    2.2365 H         1 <0>         0.0415
     49 H14         1.7211   -3.4548    4.7590 H         1 <0>         0.0851
     50 H15        -1.8320    2.8194    3.3797 H         1 <0>         0.0639
     51 H16         5.0063   -1.5479    5.3937 H         1 <0>         0.0584
     52 H17        -3.2514    4.4622    2.3649 H         1 <0>         0.0401
     53 H18        -4.4422    4.3638    3.6766 H         1 <0>         0.0440
     54 H19        -2.8521    5.0926    3.9745 H         1 <0>         0.0459
     55 H20         4.2777   -1.8006    8.1367 H         1 <0>         0.0456
     56 H21         5.7602   -1.1000    7.4588 H         1 <0>         0.0366
     57 H22         4.3590   -0.0627    7.7891 H         1 <0>         0.0474
     58 H23        -1.0105   -2.5120    0.6824 H         1 <0>         0.0800
     59 H24         0.6776   -1.9980    0.5976 H         1 <0>         0.0681
     60 H25         1.3460   -3.9033    2.0652 H         1 <0>         0.0740
     61 H26        -0.3175   -4.4733    2.1109 H         1 <0>         0.0631
     62 H27         1.2957   -4.1503   -0.5157 H         1 <0>         0.0970
     63 H28         0.0608   -3.2615   -1.4226 H         1 <0>         0.0725
     64 H29         0.1003   -3.1895    4.1787 H         1 <0>         0.0839
     65 H30        -3.4363   -0.3112    3.1590 H         1 <0>         0.4531
     66 H31        -2.4195   -6.9373   -0.5220 H         1 <0>         0.4798
     67 H32        -3.6559   -6.0529   -1.3599 H         1 <0>         0.4881
     68 H33        -1.8031   -2.9491   -1.6649 H         1 <0>         0.4801
     69 H34        -3.3061   -3.7503   -2.0214 H         1 <0>         0.4806
     70 H35        -0.2999   -5.8210   -0.0100 H         1 <0>         0.4689
     71 H36        -1.4850   -1.3266    2.4871 H         1 <0>         0.4505
     72 H37         4.1809   -5.2504    3.4059 H         1 <0>         0.4443
@<TRIPOS>BOND
     1    1    2 ar
     2    1    3 ar
     3    2    4 ar
     4    3    6 ar
     5    4    5 ar
     6    4   10 1
     7    5    6 ar
     8    5   24 1
     9    6   35 1
    10    7   15 1
    11    7   30 2
    12    7   34 1
    13    8   23 1
    14    8   25 am
    15    8   31 2
    16    9   26 1
    17    9   27 1
    18    9   28 1
    19   10   16 1
    20   11   13 1
    21   11   17 1
    22   12   15 1
    23   12   17 1
    24   13   25 1
    25   14   16 1
    26   14   24 1
    27   15   25 1
    28   16   18 1
    29   17   19 1
    30   20   21 1
    31   20   22 1
    32   21   23 1
    33   22   28 1
    34   23   29 1
    35   29   35 1
    36   32   35 2
    37   33   35 2
    38    1   36 1
    39    2   37 1
    40    3   38 1
    41   10   39 1
    42   10   40 1
    43   11   41 1
    44   11   42 1
    45   12   43 1
    46   12   44 1
    47   13   45 1
    48   13   46 1
    49   14   47 1
    50   14   48 1
    51   15   49 1
    52   16   50 1
    53   17   51 1
    54   18   52 1
    55   18   53 1
    56   18   54 1
    57   19   55 1
    58   19   56 1
    59   19   57 1
    60   20   58 1
    61   20   59 1
    62   21   60 1
    63   21   61 1
    64   22   62 1
    65   22   63 1
    66   23   64 1
    67   24   65 1
    68   26   66 1
    69   26   67 1
    70   27   68 1
    71   27   69 1
    72   28   70 1
    73   29   71 1
    74   34   72 1
@<TRIPOS>MOLECULE
1dwc_ligand_84
   72    74     0     0     0
SMALL
USER_CHARGES

mmff94s_NoEstat = 76.81
@<TRIPOS>ATOM
      1 C1         -1.4167   -4.0969    7.4880 C.ar      1 <0>        -0.1945
      2 C2         -1.3782   -2.9116    8.2194 C.ar      1 <0>        -0.0294
      3 C3         -1.8193   -4.0774    6.1560 C.ar      1 <0>        -0.0143
      4 C4         -1.7393   -1.6967    7.6196 C.ar      1 <0>        -0.1552
      5 C5         -2.1757   -1.6726    6.2800 C.ar      1 <0>         0.3076
      6 C6         -2.1929   -2.8737    5.5561 C.ar      1 <0>        -0.4908
      7 C7          2.9762   -3.0374    5.3790 C.2       1 <0>         0.5994
      8 C8          0.8654   -1.4427    3.2413 C.2       1 <0>         0.6462
      9 C9          1.3456   -6.9412   -0.3642 C.cat     1 <0>         0.6305
     10 C10        -1.6986   -0.4229    8.4294 C.3       1 <0>        -0.0319
     11 C11         2.4006    0.6688    5.8299 C.3       1 <0>        -0.0918
     12 C12         1.7620   -1.5078    6.8886 C.3       1 <0>        -0.0841
     13 C13         2.4565   -0.0177    4.4711 C.3       1 <0>         0.0870
     14 C14        -2.7014    0.7278    6.4404 C.3       1 <0>         0.2023
     15 C15         1.7319   -2.1748    5.5110 C.3       1 <0>         0.0778
     16 C16        -1.6211    0.8160    7.5233 C.3       1 <0>        -0.0746
     17 C17         2.7265   -0.3161    6.9557 C.3       1 <0>        -0.0681
     18 C18        -1.7676    2.0967    8.3404 C.3       1 <0>        -0.0944
     19 C19         2.6468    0.3706    8.3178 C.3       1 <0>        -0.0918
     20 C20         1.7689   -4.0083    2.0091 C.3       1 <0>        -0.1192
     21 C21         0.3004   -3.5693    2.0376 C.3       1 <0>        -0.0916
     22 C22         2.0958   -4.8429    0.7769 C.3       1 <0>         0.1883
     23 C23        -0.0078   -2.6730    3.2260 C.3       1 <0>         0.1952
     24 N1         -2.5388   -0.4838    5.6592 N.pl3     1 <0>        -0.7670
     25 N2          1.5999   -1.2067    4.4091 N.am      1 <0>        -0.4509
     26 N3          0.5495   -8.0810   -0.4079 N.pl3     1 <0>        -0.8477
     27 N4          2.2318   -6.6929   -1.4069 N.pl3     1 <0>        -0.8633
     28 N5          1.2730   -6.0418    0.7049 N.pl3     1 <0>        -0.7419
     29 N6         -1.3760   -2.1385    3.1042 N.pl3     1 <0>        -0.8860
     30 O1          4.0250   -2.6820    4.8621 O.2       1 <0>        -0.5199
     31 O2          0.8891   -0.7105    2.2483 O.2       1 <0>        -0.6131
     32 O3         -2.6902   -4.3257    3.4539 O.2       1 <0>        -0.6576
     33 O4         -3.8691   -2.1223    3.7357 O.2       1 <0>        -0.6482
     34 O5          2.7663   -4.2654    5.9130 O.3       1 <0>        -0.6303
     35 S1         -2.6746   -2.9347    3.8647 S.o2      1 <0>         1.5193
     36 H1         -1.1294   -5.0344    7.9561 H         1 <0>         0.1426
     37 H2         -1.0595   -2.9358    9.2588 H         1 <0>         0.1398
     38 H3         -1.8474   -4.9936    5.5747 H         1 <0>         0.1599
     39 H4         -2.6003   -0.3825    9.0536 H         1 <0>         0.0574
     40 H5         -0.8290   -0.4326    9.0980 H         1 <0>         0.0629
     41 H6          3.1075    1.5068    5.8464 H         1 <0>         0.0614
     42 H7          1.3987    1.0896    5.9845 H         1 <0>         0.0593
     43 H8          0.7490   -1.1528    7.1229 H         1 <0>         0.0841
     44 H9          2.0241   -2.2386    7.6642 H         1 <0>         0.0679
     45 H10         2.1762    0.6981    3.6915 H         1 <0>         0.0826
     46 H11         3.4796   -0.3461    4.2516 H         1 <0>         0.0383
     47 H12        -3.7013    0.7380    6.8917 H         1 <0>         0.0556
     48 H13        -2.6389    1.5936    5.7717 H         1 <0>         0.0415
     49 H14         0.8899   -2.8738    5.4853 H         1 <0>         0.0851
     50 H15        -0.6364    0.8362    7.0371 H         1 <0>         0.0639
     51 H16         3.7543   -0.6771    6.8272 H         1 <0>         0.0584
     52 H17        -1.4722    2.9671    7.7470 H         1 <0>         0.0401
     53 H18        -2.8055    2.2330    8.6588 H         1 <0>         0.0440
     54 H19        -1.1357    2.0577    9.2327 H         1 <0>         0.0459
     55 H20         1.9573   -0.1639    8.9779 H         1 <0>         0.0456
     56 H21         3.6313    0.3946    8.7945 H         1 <0>         0.0366
     57 H22         2.2914    1.3997    8.2091 H         1 <0>         0.0474
     58 H23         2.4156   -3.1229    2.0318 H         1 <0>         0.0800
     59 H24         1.9949   -4.6013    2.9028 H         1 <0>         0.0681
     60 H25        -0.3448   -4.4577    2.0448 H         1 <0>         0.0740
     61 H26         0.0666   -3.0218    1.1158 H         1 <0>         0.0631
     62 H27         3.1472   -5.1474    0.7729 H         1 <0>         0.0970
     63 H28         1.9091   -4.2592   -0.1301 H         1 <0>         0.0725
     64 H29         0.1003   -3.1895    4.1787 H         1 <0>         0.0839
     65 H30        -2.9169   -0.5266    4.7209 H         1 <0>         0.4531
     66 H31        -0.1107   -8.3043    0.3321 H         1 <0>         0.4798
     67 H32         0.6091   -8.7303   -1.1889 H         1 <0>         0.4881
     68 H33         2.8285   -5.8692   -1.4068 H         1 <0>         0.4801
     69 H34         2.3056   -7.3283   -2.1978 H         1 <0>         0.4806
     70 H35         0.6129   -6.2511    1.4553 H         1 <0>         0.4689
     71 H36        -1.4476   -1.1318    2.9219 H         1 <0>         0.4505
     72 H37         3.5585   -4.8388    5.8359 H         1 <0>         0.4443
@<TRIPOS>BOND
     1    1    2 ar
     2    1    3 ar
     3    2    4 ar
     4    3    6 ar
     5    4    5 ar
     6    4   10 1
     7    5    6 ar
     8    5   24 1
     9    6   35 1
    10    7   15 1
    11    7   30 2
    12    7   34 1
    13    8   23 1
    14    8   25 am
    15    8   31 2
    16    9   26 1
    17    9   27 1
    18    9   28 1
    19   10   16 1
    20   11   13 1
    21   11   17 1
    22   12   15 1
    23   12   17 1
    24   13   25 1
    25   14   16 1
    26   14   24 1
    27   15   25 1
    28   16   18 1
    29   17   19 1
    30   20   21 1
    31   20   22 1
    32   21   23 1
    33   22   28 1
    34   23   29 1
    35   29   35 1
    36   32   35 2
    37   33   35 2
    38    1   36 1
    39    2   37 1
    40    3   38 1
    41   10   39 1
    42   10   40 1
    43   11   41 1
    44   11   42 1
    45   12   43 1
    46   12   44 1
    47   13   45 1
    48   13   46 1
    49   14   47 1
    50   14   48 1
    51   15   49 1
    52   16   50 1
    53   17   51 1
    54   18   52 1
    55   18   53 1
    56   18   54 1
    57   19   55 1
    58   19   56 1
    59   19   57 1
    60   20   58 1
    61   20   59 1
    62   21   60 1
    63   21   61 1
    64   22   62 1
    65   22   63 1
    66   23   64 1
    67   24   65 1
    68   26   66 1
    69   26   67 1
    70   27   68 1
    71   27   69 1
    72   28   70 1
    73   29   71 1
    74   34   72 1
@<TRIPOS>MOLECULE
1dwc_ligand_85
   72    74     0     0     0
SMALL
USER_CHARGES

mmff94s_NoEstat = 76.86
@<TRIPOS>ATOM
      1 C1         -0.1021   -7.1683    0.7355 C.ar      1 <0>        -0.1945
      2 C2         -0.5792   -8.1239    1.6301 C.ar      1 <0>        -0.0294
      3 C3          0.6637   -6.1037    1.2012 C.ar      1 <0>        -0.0143
      4 C4         -0.2955   -8.0178    2.9994 C.ar      1 <0>        -0.1552
      5 C5          0.5031   -6.9592    3.4747 C.ar      1 <0>         0.3076
      6 C6          0.9609   -5.9987    2.5610 C.ar      1 <0>        -0.4908
      7 C7         -1.1116    1.0220    1.9825 C.2       1 <0>         0.5994
      8 C8          0.8654   -1.4427    3.2413 C.2       1 <0>         0.6462
      9 C9         -5.1550   -2.5406    2.8628 C.cat     1 <0>         0.6305
     10 C10        -0.8145   -9.0679    3.9520 C.3       1 <0>        -0.0319
     11 C11         2.1388    0.2326    0.2266 C.3       1 <0>        -0.0918
     12 C12        -0.3237   -0.1114   -0.0639 C.3       1 <0>        -0.0841
     13 C13         1.9602    0.1751    1.7384 C.3       1 <0>         0.0870
     14 C14         0.4940   -7.9005    5.7515 C.3       1 <0>         0.2023
     15 C15        -0.4871   -0.2577    1.4512 C.3       1 <0>         0.0778
     16 C16        -0.8357   -8.5817    5.4103 C.3       1 <0>        -0.0746
     17 C17         0.8749    0.7635   -0.4549 C.3       1 <0>        -0.0681
     18 C18        -2.0342   -7.6681    5.6911 C.3       1 <0>        -0.0944
     19 C19         1.0498    0.7979   -1.9719 C.3       1 <0>        -0.0918
     20 C20        -2.2331   -3.6727    3.9110 C.3       1 <0>        -0.1192
     21 C21        -1.3133   -2.4479    3.9716 C.3       1 <0>        -0.0916
     22 C22        -3.5726   -3.4201    4.5920 C.3       1 <0>         0.1883
     23 C23        -0.0078   -2.6730    3.2260 C.3       1 <0>         0.1952
     24 N1          0.7943   -6.8242    4.8264 N.pl3     1 <0>        -0.7670
     25 N2          0.7744   -0.5925    2.1333 N.am      1 <0>        -0.4509
     26 N3         -5.8450   -1.4865    2.2730 N.pl3     1 <0>        -0.8477
     27 N4         -5.3158   -3.8250    2.3544 N.pl3     1 <0>        -0.8633
     28 N5         -4.3046   -2.3352    3.9546 N.pl3     1 <0>        -0.7419
     29 N6          0.7961   -3.6905    3.9267 N.pl3     1 <0>        -0.8860
     30 O1         -0.4892    1.9717    2.4341 O.2       1 <0>        -0.5199
     31 O2          1.6103   -1.2468    4.2054 O.2       1 <0>        -0.6131
     32 O3          2.9489   -5.1033    3.9827 O.2       1 <0>        -0.6576
     33 O4          2.3147   -3.9087    1.8626 O.2       1 <0>        -0.6482
     34 O5         -2.4629    0.9691    1.8908 O.3       1 <0>        -0.6303
     35 S1          1.9328   -4.6215    3.0666 S.o2      1 <0>         1.5193
     36 H1         -0.3304   -7.2521   -0.3236 H         1 <0>         0.1426
     37 H2         -1.1793   -8.9508    1.2577 H         1 <0>         0.1398
     38 H3          1.0358   -5.3499    0.5144 H         1 <0>         0.1599
     39 H4         -1.8224   -9.3834    3.6556 H         1 <0>         0.0574
     40 H5         -0.1575   -9.9435    3.8733 H         1 <0>         0.0629
     41 H6          2.9950    0.8726   -0.0171 H         1 <0>         0.0614
     42 H7          2.3692   -0.7717   -0.1514 H         1 <0>         0.0593
     43 H8         -0.1827   -1.1122   -0.4945 H         1 <0>         0.0841
     44 H9         -1.2391    0.2955   -0.5121 H         1 <0>         0.0679
     45 H10         2.8610   -0.2490    2.1940 H         1 <0>         0.0826
     46 H11         1.8403    1.1858    2.1470 H         1 <0>         0.0383
     47 H12         0.4682   -7.5028    6.7722 H         1 <0>         0.0556
     48 H13         1.3063   -8.6368    5.7145 H         1 <0>         0.0415
     49 H14        -1.2253   -1.0427    1.6435 H         1 <0>         0.0851
     50 H15        -0.9553   -9.4568    6.0608 H         1 <0>         0.0639
     51 H16         0.6944    1.7923   -0.1196 H         1 <0>         0.0584
     52 H17        -2.5659   -7.4356    4.7636 H         1 <0>         0.0401
     53 H18        -2.7347   -8.1530    6.3776 H         1 <0>         0.0440
     54 H19        -1.7034   -6.7283    6.1433 H         1 <0>         0.0459
     55 H20         0.1097    0.5485   -2.4730 H         1 <0>         0.0456
     56 H21         1.3618    1.7937   -2.3005 H         1 <0>         0.0366
     57 H22         1.8100    0.0770   -2.2875 H         1 <0>         0.0474
     58 H23        -2.4032   -3.9506    2.8639 H         1 <0>         0.0800
     59 H24        -1.7473   -4.5245    4.4007 H         1 <0>         0.0681
     60 H25        -1.1204   -2.1894    5.0211 H         1 <0>         0.0740
     61 H26        -1.8263   -1.5854    3.5275 H         1 <0>         0.0631
     62 H27        -3.4379   -3.1690    5.6489 H         1 <0>         0.0970
     63 H28        -4.1962   -4.3179    4.5344 H         1 <0>         0.0725
     64 H29        -0.1638   -2.9774    2.1921 H         1 <0>         0.0839
     65 H30         1.4333   -6.0909    5.1082 H         1 <0>         0.4531
     66 H31        -5.7600   -0.5320    2.6119 H         1 <0>         0.4798
     67 H32        -6.4620   -1.6448    1.4797 H         1 <0>         0.4881
     68 H33        -4.8265   -4.6183    2.7616 H         1 <0>         0.4801
     69 H34        -5.9263   -4.0045    1.5608 H         1 <0>         0.4806
     70 H35        -4.2070   -1.3812    4.3054 H         1 <0>         0.4689
     71 H36         0.9382   -3.5340    4.9302 H         1 <0>         0.4505
     72 H37        -2.8855    1.7865    2.2310 H         1 <0>         0.4443
@<TRIPOS>BOND
     1    1    2 ar
     2    1    3 ar
     3    2    4 ar
     4    3    6 ar
     5    4    5 ar
     6    4   10 1
     7    5    6 ar
     8    5   24 1
     9    6   35 1
    10    7   15 1
    11    7   30 2
    12    7   34 1
    13    8   23 1
    14    8   25 am
    15    8   31 2
    16    9   26 1
    17    9   27 1
    18    9   28 1
    19   10   16 1
    20   11   13 1
    21   11   17 1
    22   12   15 1
    23   12   17 1
    24   13   25 1
    25   14   16 1
    26   14   24 1
    27   15   25 1
    28   16   18 1
    29   17   19 1
    30   20   21 1
    31   20   22 1
    32   21   23 1
    33   22   28 1
    34   23   29 1
    35   29   35 1
    36   32   35 2
    37   33   35 2
    38    1   36 1
    39    2   37 1
    40    3   38 1
    41   10   39 1
    42   10   40 1
    43   11   41 1
    44   11   42 1
    45   12   43 1
    46   12   44 1
    47   13   45 1
    48   13   46 1
    49   14   47 1
    50   14   48 1
    51   15   49 1
    52   16   50 1
    53   17   51 1
    54   18   52 1
    55   18   53 1
    56   18   54 1
    57   19   55 1
    58   19   56 1
    59   19   57 1
    60   20   58 1
    61   20   59 1
    62   21   60 1
    63   21   61 1
    64   22   62 1
    65   22   63 1
    66   23   64 1
    67   24   65 1
    68   26   66 1
    69   26   67 1
    70   27   68 1
    71   27   69 1
    72   28   70 1
    73   29   71 1
    74   34   72 1
@<TRIPOS>MOLECULE
1dwc_ligand_86
   72    74     0     0     0
SMALL
USER_CHARGES

mmff94s_NoEstat = 76.88
@<TRIPOS>ATOM
      1 C1         -1.8811   -7.3955    2.4466 C.ar      1 <0>        -0.1945
      2 C2         -2.1524   -7.9421    3.6991 C.ar      1 <0>        -0.0294
      3 C3         -0.8111   -6.5198    2.2891 C.ar      1 <0>        -0.0143
      4 C4         -1.3553   -7.6120    4.8047 C.ar      1 <0>        -0.1552
      5 C5         -0.2531   -6.7489    4.6476 C.ar      1 <0>         0.3076
      6 C6         -0.0057   -6.1967    3.3824 C.ar      1 <0>        -0.4908
      7 C7         -1.4628    0.1636    1.3526 C.2       1 <0>         0.5994
      8 C8          0.8654   -1.4427    3.2413 C.2       1 <0>         0.6462
      9 C9         -5.1550   -2.5406    2.8628 C.cat     1 <0>         0.6305
     10 C10        -1.6602   -8.2210    6.1522 C.3       1 <0>        -0.0319
     11 C11         2.1918    0.8805    0.7195 C.3       1 <0>        -0.0918
     12 C12         0.2821   -0.3679   -0.3105 C.3       1 <0>        -0.0841
     13 C13         1.6113    0.6116    2.1020 C.3       1 <0>         0.0870
     14 C14         0.4274   -7.1008    6.9892 C.3       1 <0>         0.2023
     15 C15        -0.2506   -0.7126    1.0828 C.3       1 <0>         0.0778
     16 C16        -1.0343   -7.4292    7.3118 C.3       1 <0>        -0.0746
     17 C17         1.0859    0.9390   -0.3376 C.3       1 <0>        -0.0681
     18 C18        -1.8422   -6.1701    7.6463 C.3       1 <0>        -0.0944
     19 C19         1.6740    1.1859   -1.7255 C.3       1 <0>        -0.0918
     20 C20        -2.2331   -3.6727    3.9110 C.3       1 <0>        -0.1192
     21 C21        -1.3133   -2.4479    3.9716 C.3       1 <0>        -0.0916
     22 C22        -3.5726   -3.4201    4.5920 C.3       1 <0>         0.1883
     23 C23        -0.0078   -2.6730    3.2260 C.3       1 <0>         0.1952
     24 N1          0.5495   -6.3981    5.7259 N.pl3     1 <0>        -0.7670
     25 N2          0.7744   -0.5925    2.1333 N.am      1 <0>        -0.4509
     26 N3         -5.8450   -1.4865    2.2730 N.pl3     1 <0>        -0.8477
     27 N4         -5.3158   -3.8250    2.3544 N.pl3     1 <0>        -0.8633
     28 N5         -4.3046   -2.3352    3.9546 N.pl3     1 <0>        -0.7419
     29 N6          0.7961   -3.6905    3.9267 N.pl3     1 <0>        -0.8860
     30 O1         -1.4385    1.2323    1.9447 O.2       1 <0>        -0.5199
     31 O2          1.6103   -1.2468    4.2054 O.2       1 <0>        -0.6131
     32 O3          2.5030   -5.6116    3.7560 O.2       1 <0>        -0.6576
     33 O4          1.3467   -4.8031    1.6743 O.2       1 <0>        -0.6482
     34 O5         -2.5854   -0.4037    0.8474 O.3       1 <0>        -0.6303
     35 S1          1.3247   -5.0804    3.0977 S.o2      1 <0>         1.5193
     36 H1         -2.5060   -7.6499    1.5947 H         1 <0>         0.1426
     37 H2         -2.9923   -8.6232    3.8135 H         1 <0>         0.1398
     38 H3         -0.5938   -6.0831    1.3193 H         1 <0>         0.1599
     39 H4         -2.7449   -8.2917    6.2993 H         1 <0>         0.0574
     40 H5         -1.2589   -9.2425    6.1550 H         1 <0>         0.0629
     41 H6          2.7495    1.8244    0.7335 H         1 <0>         0.0614
     42 H7          2.9066    0.0878    0.4640 H         1 <0>         0.0593
     43 H8          0.9336   -1.1873   -0.6438 H         1 <0>         0.0841
     44 H9         -0.5414   -0.3095   -1.0336 H         1 <0>         0.0679
     45 H10         2.4269    0.5309    2.8282 H         1 <0>         0.0826
     46 H11         0.9807    1.4504    2.4206 H         1 <0>         0.0383
     47 H12         0.8663   -6.4902    7.7861 H         1 <0>         0.0556
     48 H13         1.0113   -8.0280    6.9371 H         1 <0>         0.0415
     49 H14        -0.6325   -1.7382    1.0612 H         1 <0>         0.0851
     50 H15        -1.0595   -8.0597    8.2092 H         1 <0>         0.0639
     51 H16         0.4173    1.7778   -0.1080 H         1 <0>         0.0584
     52 H17        -2.6327   -6.0129    6.9064 H         1 <0>         0.0401
     53 H18        -2.3068   -6.2621    8.6326 H         1 <0>         0.0440
     54 H19        -1.1948   -5.2881    7.6513 H         1 <0>         0.0459
     55 H20         1.1081    0.6390   -2.4855 H         1 <0>         0.0456
     56 H21         1.6425    2.2512   -1.9725 H         1 <0>         0.0366
     57 H22         2.7156    0.8534   -1.7662 H         1 <0>         0.0474
     58 H23        -2.4032   -3.9506    2.8639 H         1 <0>         0.0800
     59 H24        -1.7473   -4.5245    4.4007 H         1 <0>         0.0681
     60 H25        -1.1204   -2.1894    5.0211 H         1 <0>         0.0740
     61 H26        -1.8263   -1.5854    3.5275 H         1 <0>         0.0631
     62 H27        -3.4379   -3.1690    5.6489 H         1 <0>         0.0970
     63 H28        -4.1962   -4.3179    4.5344 H         1 <0>         0.0725
     64 H29        -0.1638   -2.9774    2.1921 H         1 <0>         0.0839
     65 H30         1.3727   -5.8359    5.5480 H         1 <0>         0.4531
     66 H31        -5.7600   -0.5320    2.6119 H         1 <0>         0.4798
     67 H32        -6.4620   -1.6448    1.4797 H         1 <0>         0.4881
     68 H33        -4.8265   -4.6183    2.7616 H         1 <0>         0.4801
     69 H34        -5.9263   -4.0045    1.5608 H         1 <0>         0.4806
     70 H35        -4.2070   -1.3812    4.3054 H         1 <0>         0.4689
     71 H36         1.3354   -3.3564    4.7325 H         1 <0>         0.4505
     72 H37        -3.3805    0.1466    1.0133 H         1 <0>         0.4443
@<TRIPOS>BOND
     1    1    2 ar
     2    1    3 ar
     3    2    4 ar
     4    3    6 ar
     5    4    5 ar
     6    4   10 1
     7    5    6 ar
     8    5   24 1
     9    6   35 1
    10    7   15 1
    11    7   30 2
    12    7   34 1
    13    8   23 1
    14    8   25 am
    15    8   31 2
    16    9   26 1
    17    9   27 1
    18    9   28 1
    19   10   16 1
    20   11   13 1
    21   11   17 1
    22   12   15 1
    23   12   17 1
    24   13   25 1
    25   14   16 1
    26   14   24 1
    27   15   25 1
    28   16   18 1
    29   17   19 1
    30   20   21 1
    31   20   22 1
    32   21   23 1
    33   22   28 1
    34   23   29 1
    35   29   35 1
    36   32   35 2
    37   33   35 2
    38    1   36 1
    39    2   37 1
    40    3   38 1
    41   10   39 1
    42   10   40 1
    43   11   41 1
    44   11   42 1
    45   12   43 1
    46   12   44 1
    47   13   45 1
    48   13   46 1
    49   14   47 1
    50   14   48 1
    51   15   49 1
    52   16   50 1
    53   17   51 1
    54   18   52 1
    55   18   53 1
    56   18   54 1
    57   19   55 1
    58   19   56 1
    59   19   57 1
    60   20   58 1
    61   20   59 1
    62   21   60 1
    63   21   61 1
    64   22   62 1
    65   22   63 1
    66   23   64 1
    67   24   65 1
    68   26   66 1
    69   26   67 1
    70   27   68 1
    71   27   69 1
    72   28   70 1
    73   29   71 1
    74   34   72 1
@<TRIPOS>MOLECULE
1dwc_ligand_87
   72    74     0     0     0
SMALL
USER_CHARGES

mmff94s_NoEstat = 76.89
@<TRIPOS>ATOM
      1 C1         -2.0732   -6.1389    5.6806 C.ar      1 <0>        -0.1945
      2 C2         -2.6808   -6.9079    4.6902 C.ar      1 <0>        -0.0294
      3 C3         -2.0299   -4.7535    5.5544 C.ar      1 <0>        -0.0143
      4 C4         -3.2534   -6.2935    3.5673 C.ar      1 <0>        -0.1552
      5 C5         -3.1881   -4.8939    3.4179 C.ar      1 <0>         0.3076
      6 C6         -2.5860   -4.1361    4.4328 C.ar      1 <0>        -0.4908
      7 C7          2.9525   -3.7210    4.6633 C.2       1 <0>         0.5994
      8 C8          0.8654   -1.4427    3.2413 C.2       1 <0>         0.6462
      9 C9         -0.6326   -5.9229   -1.4626 C.cat     1 <0>         0.6305
     10 C10        -3.9012   -7.1431    2.5003 C.3       1 <0>        -0.0319
     11 C11         3.8997   -0.0663    4.7953 C.3       1 <0>        -0.0918
     12 C12         3.0155   -1.8674    6.2922 C.3       1 <0>        -0.0841
     13 C13         3.1900   -0.7124    3.6122 C.3       1 <0>         0.0870
     14 C14        -4.2059   -5.0337    1.1799 C.3       1 <0>         0.2023
     15 C15         2.2314   -2.4635    5.1202 C.3       1 <0>         0.0778
     16 C16        -4.8855   -6.3235    1.6511 C.3       1 <0>        -0.0746
     17 C17         4.2756   -1.1130    5.8473 C.3       1 <0>        -0.0681
     18 C18        -5.3916   -7.1408    0.4657 C.3       1 <0>        -0.0944
     19 C19         4.9663   -0.4582    7.0420 C.3       1 <0>        -0.0918
     20 C20         0.0249   -2.8727    0.7002 C.3       1 <0>        -0.1192
     21 C21         0.3004   -3.5693    2.0376 C.3       1 <0>        -0.0916
     22 C22         0.2602   -3.7963   -0.4886 C.3       1 <0>         0.1883
     23 C23        -0.0078   -2.6730    3.2260 C.3       1 <0>         0.1952
     24 N1         -3.7473   -4.2576    2.3165 N.pl3     1 <0>        -0.7670
     25 N2          2.0252   -1.5038    4.0223 N.am      1 <0>        -0.4509
     26 N3         -1.4804   -7.0239   -1.4014 N.pl3     1 <0>        -0.8477
     27 N4          0.2178   -5.7819   -2.5539 N.pl3     1 <0>        -0.8633
     28 N5         -0.6182   -4.9567   -0.4508 N.pl3     1 <0>        -0.7419
     29 N6         -1.3760   -2.1385    3.1042 N.pl3     1 <0>        -0.8860
     30 O1          3.7741   -3.7699    3.7601 O.2       1 <0>        -0.5199
     31 O2          0.5240   -0.4555    2.5844 O.2       1 <0>        -0.6131
     32 O3         -3.7998   -1.8872    3.9383 O.2       1 <0>        -0.6576
     33 O4         -1.9207   -1.9310    5.6091 O.2       1 <0>        -0.6482
     34 O5          2.5581   -4.7916    5.3952 O.3       1 <0>        -0.6303
     35 S1         -2.5018   -2.3799    4.3583 S.o2      1 <0>         1.5193
     36 H1         -1.6372   -6.6199    6.5517 H         1 <0>         0.1426
     37 H2         -2.7127   -7.9895    4.7986 H         1 <0>         0.1398
     38 H3         -1.5647   -4.1439    6.3224 H         1 <0>         0.1599
     39 H4         -3.1097   -7.5632    1.8667 H         1 <0>         0.0574
     40 H5         -4.4383   -7.9798    2.9637 H         1 <0>         0.0629
     41 H6          4.7987    0.4538    4.4437 H         1 <0>         0.0614
     42 H7          3.2442    0.6909    5.2441 H         1 <0>         0.0593
     43 H8          2.3586   -1.1679    6.8273 H         1 <0>         0.0841
     44 H9          3.2888   -2.6509    7.0104 H         1 <0>         0.0679
     45 H10         2.8945    0.0639    2.8988 H         1 <0>         0.0826
     46 H11         3.8704   -1.3909    3.0835 H         1 <0>         0.0383
     47 H12        -3.3535   -5.2630    0.5284 H         1 <0>         0.0556
     48 H13        -4.9071   -4.4281    0.5950 H         1 <0>         0.0415
     49 H14         1.2607   -2.8048    5.4936 H         1 <0>         0.0851
     50 H15        -5.7514   -6.0581    2.2728 H         1 <0>         0.0639
     51 H16         4.9839   -1.8245    5.4052 H         1 <0>         0.0584
     52 H17        -6.2610   -6.6582    0.0093 H         1 <0>         0.0401
     53 H18        -4.6118   -7.2373   -0.2957 H         1 <0>         0.0440
     54 H19        -5.6846   -8.1445    0.7879 H         1 <0>         0.0459
     55 H20         4.4464   -0.7091    7.9715 H         1 <0>         0.0456
     56 H21         6.0020   -0.8015    7.1231 H         1 <0>         0.0366
     57 H22         4.9717    0.6305    6.9335 H         1 <0>         0.0474
     58 H23        -1.0105   -2.5120    0.6824 H         1 <0>         0.0800
     59 H24         0.6776   -1.9980    0.5976 H         1 <0>         0.0681
     60 H25         1.3460   -3.9033    2.0652 H         1 <0>         0.0740
     61 H26        -0.3175   -4.4733    2.1109 H         1 <0>         0.0631
     62 H27         1.2957   -4.1503   -0.5157 H         1 <0>         0.0970
     63 H28         0.0608   -3.2615   -1.4226 H         1 <0>         0.0725
     64 H29         0.1003   -3.1895    4.1787 H         1 <0>         0.0839
     65 H30        -3.6095   -3.2595    2.2158 H         1 <0>         0.4531
     66 H31        -2.1173   -7.1693   -0.6226 H         1 <0>         0.4798
     67 H32        -1.4841   -7.7223   -2.1412 H         1 <0>         0.4881
     68 H33         0.8505   -4.9892   -2.6303 H         1 <0>         0.4801
     69 H34         0.2286   -6.4677   -3.3050 H         1 <0>         0.4806
     70 H35        -1.2539   -5.0876    0.3375 H         1 <0>         0.4689
     71 H36        -1.4850   -1.3266    2.4871 H         1 <0>         0.4505
     72 H37         3.0115   -5.6147    5.1139 H         1 <0>         0.4443
@<TRIPOS>BOND
     1    1    2 ar
     2    1    3 ar
     3    2    4 ar
     4    3    6 ar
     5    4    5 ar
     6    4   10 1
     7    5    6 ar
     8    5   24 1
     9    6   35 1
    10    7   15 1
    11    7   30 2
    12    7   34 1
    13    8   23 1
    14    8   25 am
    15    8   31 2
    16    9   26 1
    17    9   27 1
    18    9   28 1
    19   10   16 1
    20   11   13 1
    21   11   17 1
    22   12   15 1
    23   12   17 1
    24   13   25 1
    25   14   16 1
    26   14   24 1
    27   15   25 1
    28   16   18 1
    29   17   19 1
    30   20   21 1
    31   20   22 1
    32   21   23 1
    33   22   28 1
    34   23   29 1
    35   29   35 1
    36   32   35 2
    37   33   35 2
    38    1   36 1
    39    2   37 1
    40    3   38 1
    41   10   39 1
    42   10   40 1
    43   11   41 1
    44   11   42 1
    45   12   43 1
    46   12   44 1
    47   13   45 1
    48   13   46 1
    49   14   47 1
    50   14   48 1
    51   15   49 1
    52   16   50 1
    53   17   51 1
    54   18   52 1
    55   18   53 1
    56   18   54 1
    57   19   55 1
    58   19   56 1
    59   19   57 1
    60   20   58 1
    61   20   59 1
    62   21   60 1
    63   21   61 1
    64   22   62 1
    65   22   63 1
    66   23   64 1
    67   24   65 1
    68   26   66 1
    69   26   67 1
    70   27   68 1
    71   27   69 1
    72   28   70 1
    73   29   71 1
    74   34   72 1
@<TRIPOS>MOLECULE
1dwc_ligand_88
   72    74     0     0     0
SMALL
USER_CHARGES

mmff94s_NoEstat = 76.90
@<TRIPOS>ATOM
      1 C1          4.7857   -3.3854   -6.6747 C.ar      1 <0>        -0.1945
      2 C2          4.2835   -2.4050   -7.5279 C.ar      1 <0>        -0.0294
      3 C3          4.0861   -3.7255   -5.5206 C.ar      1 <0>        -0.0143
      4 C4          3.0736   -1.7606   -7.2327 C.ar      1 <0>        -0.1552
      5 C5          2.3740   -2.0785   -6.0516 C.ar      1 <0>         0.3076
      6 C6          2.8878   -3.0788   -5.2136 C.ar      1 <0>        -0.4908
      7 C7          0.5484   -0.8946    1.4535 C.2       1 <0>         0.5994
      8 C8          2.9466   -1.3973   -0.6457 C.2       1 <0>         0.6462
      9 C9          9.0792    0.7389   -1.8541 C.cat     1 <0>         0.6305
     10 C10         2.5481   -0.6954   -8.1649 C.3       1 <0>        -0.0319
     11 C11         1.0071   -4.1523    1.0299 C.3       1 <0>        -0.0918
     12 C12         1.8830   -2.5004    2.7729 C.3       1 <0>        -0.0841
     13 C13         2.2320   -3.6460    0.2757 C.3       1 <0>         0.0870
     14 C14         0.7263   -0.3013   -6.4881 C.3       1 <0>         0.2023
     15 C15         1.9200   -1.5343    1.5913 C.3       1 <0>         0.0778
     16 C16         1.0380   -0.4809   -7.9775 C.3       1 <0>        -0.0746
     17 C17         1.0079   -3.7392    2.5107 C.3       1 <0>        -0.0681
     18 C18         0.5551    0.7196   -8.7869 C.3       1 <0>        -0.0944
     19 C19         1.4463   -4.8953    3.4115 C.3       1 <0>        -0.0918
     20 C20         5.7415   -1.0578   -1.6401 C.3       1 <0>        -0.1192
     21 C21         4.5564   -1.3488   -2.5679 C.3       1 <0>        -0.0916
     22 C22         6.8115   -0.2136   -2.3213 C.3       1 <0>         0.1883
     23 C23         3.4544   -2.1251   -1.8653 C.3       1 <0>         0.1952
     24 N1          1.1726   -1.4571   -5.7336 N.pl3     1 <0>        -0.7670
     25 N2          2.3654   -2.1840    0.3531 N.am      1 <0>        -0.4509
     26 N3         10.1464    0.9650   -0.9911 N.pl3     1 <0>        -0.8477
     27 N4          9.1456    1.2237   -3.1558 N.pl3     1 <0>        -0.8633
     28 N5          7.9432    0.0352   -1.4399 N.pl3     1 <0>        -0.7419
     29 N6          2.2741   -2.2179   -2.7432 N.pl3     1 <0>        -0.8860
     30 O1         -0.0257   -0.2688    2.3322 O.2       1 <0>        -0.5199
     31 O2          3.0580   -0.1705   -0.5795 O.2       1 <0>        -0.6131
     32 O3          0.6499   -3.7277   -4.0534 O.2       1 <0>        -0.6576
     33 O4          2.8074   -4.6931   -3.1946 O.2       1 <0>        -0.6482
     34 O5          0.0400   -1.1141    0.2163 O.3       1 <0>        -0.6303
     35 S1          2.0591   -3.5786   -3.7438 S.o2      1 <0>         1.5193
     36 H1          5.7203   -3.8862   -6.9120 H         1 <0>         0.1426
     37 H2          4.8354   -2.1479   -8.4289 H         1 <0>         0.1398
     38 H3          4.4644   -4.4919   -4.8517 H         1 <0>         0.1599
     39 H4          3.0928    0.2363   -7.9655 H         1 <0>         0.0574
     40 H5          2.7429   -0.9806   -9.2061 H         1 <0>         0.0629
     41 H6          0.1116   -3.7326    0.5525 H         1 <0>         0.0614
     42 H7          0.9264   -5.2409    0.9288 H         1 <0>         0.0593
     43 H8          2.9117   -2.8226    2.9853 H         1 <0>         0.0841
     44 H9          1.5267   -1.9929    3.6785 H         1 <0>         0.0679
     45 H10         3.1493   -4.0774    0.6933 H         1 <0>         0.0826
     46 H11         2.1726   -3.9558   -0.7722 H         1 <0>         0.0383
     47 H12         1.2164    0.5993   -6.0977 H         1 <0>         0.0556
     48 H13        -0.3518   -0.1738   -6.3395 H         1 <0>         0.0415
     49 H14         2.6095   -0.7128    1.8202 H         1 <0>         0.0851
     50 H15         0.5073   -1.3704   -8.3432 H         1 <0>         0.0639
     51 H16        -0.0273   -3.5034    2.7887 H         1 <0>         0.0584
     52 H17        -0.5372    0.7259   -8.8506 H         1 <0>         0.0401
     53 H18         0.8784    1.6541   -8.3188 H         1 <0>         0.0440
     54 H19         0.9591    0.6854   -9.8032 H         1 <0>         0.0459
     55 H20         0.5753   -5.4296    3.8024 H         1 <0>         0.0456
     56 H21         2.0638   -5.6051    2.8530 H         1 <0>         0.0366
     57 H22         2.0303   -4.5225    4.2583 H         1 <0>         0.0474
     58 H23         5.3842   -0.5386   -0.7426 H         1 <0>         0.0800
     59 H24         6.1956   -2.0004   -1.3135 H         1 <0>         0.0681
     60 H25         4.9119   -1.8947   -3.4517 H         1 <0>         0.0740
     61 H26         4.1396   -0.4017   -2.9334 H         1 <0>         0.0631
     62 H27         6.4083    0.7518   -2.6432 H         1 <0>         0.0970
     63 H28         7.1906   -0.7341   -3.2066 H         1 <0>         0.0725
     64 H29         3.7703   -3.1244   -1.5692 H         1 <0>         0.0839
     65 H30         0.7458   -1.6637   -4.8389 H         1 <0>         0.4531
     66 H31        10.1413    0.6313   -0.0309 H         1 <0>         0.4798
     67 H32        10.9686    1.4783   -1.3002 H         1 <0>         0.4881
     68 H33         8.3832    1.0763   -3.8128 H         1 <0>         0.4801
     69 H34         9.9591    1.7377   -3.4855 H         1 <0>         0.4806
     70 H35         7.9238   -0.3084   -0.4785 H         1 <0>         0.4689
     71 H36         1.4502   -1.6870   -2.4414 H         1 <0>         0.4505
     72 H37        -0.8473   -0.7100    0.1079 H         1 <0>         0.4443
@<TRIPOS>BOND
     1    1    2 ar
     2    1    3 ar
     3    2    4 ar
     4    3    6 ar
     5    4    5 ar
     6    4   10 1
     7    5    6 ar
     8    5   24 1
     9    6   35 1
    10    7   15 1
    11    7   30 2
    12    7   34 1
    13    8   23 1
    14    8   25 am
    15    8   31 2
    16    9   26 1
    17    9   27 1
    18    9   28 1
    19   10   16 1
    20   11   13 1
    21   11   17 1
    22   12   15 1
    23   12   17 1
    24   13   25 1
    25   14   16 1
    26   14   24 1
    27   15   25 1
    28   16   18 1
    29   17   19 1
    30   20   21 1
    31   20   22 1
    32   21   23 1
    33   22   28 1
    34   23   29 1
    35   29   35 1
    36   32   35 2
    37   33   35 2
    38    1   36 1
    39    2   37 1
    40    3   38 1
    41   10   39 1
    42   10   40 1
    43   11   41 1
    44   11   42 1
    45   12   43 1
    46   12   44 1
    47   13   45 1
    48   13   46 1
    49   14   47 1
    50   14   48 1
    51   15   49 1
    52   16   50 1
    53   17   51 1
    54   18   52 1
    55   18   53 1
    56   18   54 1
    57   19   55 1
    58   19   56 1
    59   19   57 1
    60   20   58 1
    61   20   59 1
    62   21   60 1
    63   21   61 1
    64   22   62 1
    65   22   63 1
    66   23   64 1
    67   24   65 1
    68   26   66 1
    69   26   67 1
    70   27   68 1
    71   27   69 1
    72   28   70 1
    73   29   71 1
    74   34   72 1
@<TRIPOS>MOLECULE
1dwc_ligand_89
   72    74     0     0     0
SMALL
USER_CHARGES

mmff94s_NoEstat = 76.90
@<TRIPOS>ATOM
      1 C1          1.6845   -5.9778    0.1844 C.ar      1 <0>        -0.1945
      2 C2          0.6520   -5.4496    0.9566 C.ar      1 <0>        -0.0294
      3 C3          1.9606   -5.4374   -1.0681 C.ar      1 <0>        -0.0143
      4 C4         -0.1093   -4.3725    0.4806 C.ar      1 <0>        -0.1552
      5 C5          0.1450   -3.8386   -0.7984 C.ar      1 <0>         0.3076
      6 C6          1.1982   -4.3739   -1.5539 C.ar      1 <0>        -0.4908
      7 C7          1.8102   -1.5505    2.3702 C.2       1 <0>         0.5994
      8 C8          2.9466   -1.3973   -0.6457 C.2       1 <0>         0.6462
      9 C9          6.8021   -5.4466   -4.4355 C.cat     1 <0>         0.6305
     10 C10        -1.2292   -3.8175    1.3278 C.3       1 <0>        -0.0319
     11 C11         4.4920   -3.4807    2.0801 C.3       1 <0>        -0.0918
     12 C12         4.1798   -1.0721    2.8769 C.3       1 <0>        -0.0841
     13 C13         4.5658   -2.7774    0.7291 C.3       1 <0>         0.0870
     14 C14        -1.7931   -2.3309   -0.6108 C.3       1 <0>         0.2023
     15 C15         3.1125   -1.0286    1.7861 C.3       1 <0>         0.0778
     16 C16        -1.5940   -2.3850    0.9075 C.3       1 <0>        -0.0746
     17 C17         4.5869   -2.5050    3.2643 C.3       1 <0>        -0.0681
     18 C18        -2.8431   -1.9049    1.6414 C.3       1 <0>        -0.0944
     19 C19         5.9882   -2.5079    3.8779 C.3       1 <0>        -0.0918
     20 C20         5.1203   -2.1076   -3.7746 C.3       1 <0>        -0.1192
     21 C21         4.5564   -1.3488   -2.5679 C.3       1 <0>        -0.0916
     22 C22         5.6479   -3.4850   -3.3924 C.3       1 <0>         0.1883
     23 C23         3.4544   -2.1251   -1.8653 C.3       1 <0>         0.1952
     24 N1         -0.5924   -2.7711   -1.2958 N.pl3     1 <0>        -0.7670
     25 N2          3.5192   -1.7560    0.5781 N.am      1 <0>        -0.4509
     26 N3          7.3239   -6.0965   -5.5492 N.pl3     1 <0>        -0.8477
     27 N4          6.8782   -6.0650   -3.1922 N.pl3     1 <0>        -0.8633
     28 N5          6.2038   -4.1863   -4.5407 N.pl3     1 <0>        -0.7419
     29 N6          2.2741   -2.2179   -2.7432 N.pl3     1 <0>        -0.8860
     30 O1          1.4308   -2.7108    2.3137 O.2       1 <0>        -0.5199
     31 O2          2.0685   -0.5400   -0.7710 O.2       1 <0>        -0.6131
     32 O3          2.6686   -4.5798   -3.6918 O.2       1 <0>        -0.6576
     33 O4          0.3811   -3.5494   -3.8650 O.2       1 <0>        -0.6482
     34 O5          1.1172   -0.5491    2.9655 O.3       1 <0>        -0.6303
     35 S1          1.6226   -3.7401   -3.1398 S.o2      1 <0>         1.5193
     36 H1          2.2754   -6.8081    0.5612 H         1 <0>         0.1426
     37 H2          0.4453   -5.8762    1.9353 H         1 <0>         0.1398
     38 H3          2.7663   -5.8367   -1.6758 H         1 <0>         0.1599
     39 H4         -2.0994   -4.4781    1.2245 H         1 <0>         0.0574
     40 H5         -0.9335   -3.8165    2.3842 H         1 <0>         0.0629
     41 H6          3.5311   -4.0088    2.1410 H         1 <0>         0.0614
     42 H7          5.2694   -4.2509    2.1463 H         1 <0>         0.0593
     43 H8          5.0641   -0.5305    2.5137 H         1 <0>         0.0841
     44 H9          3.8399   -0.5392    3.7741 H         1 <0>         0.0679
     45 H10         5.5312   -2.2723    0.6079 H         1 <0>         0.0826
     46 H11         4.4795   -3.5150   -0.0747 H         1 <0>         0.0383
     47 H12        -2.6365   -2.9647   -0.9116 H         1 <0>         0.0556
     48 H13        -2.0279   -1.3080   -0.9257 H         1 <0>         0.0415
     49 H14         2.9188    0.0160    1.5141 H         1 <0>         0.0851
     50 H15        -0.7654   -1.7164    1.1777 H         1 <0>         0.0639
     51 H16         3.9047   -2.8651    4.0450 H         1 <0>         0.0584
     52 H17        -2.9604   -0.8225    1.5328 H         1 <0>         0.0401
     53 H18        -3.7366   -2.3905    1.2379 H         1 <0>         0.0440
     54 H19        -2.7758   -2.1387    2.7081 H         1 <0>         0.0459
     55 H20         6.0310   -3.1862    4.7353 H         1 <0>         0.0456
     56 H21         6.7293   -2.8350    3.1425 H         1 <0>         0.0366
     57 H22         6.2606   -1.5045    4.2187 H         1 <0>         0.0474
     58 H23         4.3389   -2.2150   -4.5365 H         1 <0>         0.0800
     59 H24         5.9381   -1.5325   -4.2238 H         1 <0>         0.0681
     60 H25         4.1906   -0.3664   -2.8945 H         1 <0>         0.0740
     61 H26         5.3633   -1.1575   -1.8491 H         1 <0>         0.0631
     62 H27         4.8565   -4.1061   -2.9610 H         1 <0>         0.0970
     63 H28         6.4445   -3.3867   -2.6481 H         1 <0>         0.0725
     64 H29         3.7703   -3.1244   -1.5692 H         1 <0>         0.0839
     65 H30        -0.4235   -2.4715   -2.2481 H         1 <0>         0.4531
     66 H31         7.2891   -5.6840   -6.4776 H         1 <0>         0.4798
     67 H32         7.7569   -7.0132   -5.4639 H         1 <0>         0.4881
     68 H33         6.5067   -5.6181   -2.3575 H         1 <0>         0.4801
     69 H34         7.3085   -6.9804   -3.0849 H         1 <0>         0.4806
     70 H35         6.1629   -3.7578   -5.4666 H         1 <0>         0.4689
     71 H36         1.6613   -1.3957   -2.7560 H         1 <0>         0.4505
     72 H37         0.2712   -0.8659    3.3478 H         1 <0>         0.4443
@<TRIPOS>BOND
     1    1    2 ar
     2    1    3 ar
     3    2    4 ar
     4    3    6 ar
     5    4    5 ar
     6    4   10 1
     7    5    6 ar
     8    5   24 1
     9    6   35 1
    10    7   15 1
    11    7   30 2
    12    7   34 1
    13    8   23 1
    14    8   25 am
    15    8   31 2
    16    9   26 1
    17    9   27 1
    18    9   28 1
    19   10   16 1
    20   11   13 1
    21   11   17 1
    22   12   15 1
    23   12   17 1
    24   13   25 1
    25   14   16 1
    26   14   24 1
    27   15   25 1
    28   16   18 1
    29   17   19 1
    30   20   21 1
    31   20   22 1
    32   21   23 1
    33   22   28 1
    34   23   29 1
    35   29   35 1
    36   32   35 2
    37   33   35 2
    38    1   36 1
    39    2   37 1
    40    3   38 1
    41   10   39 1
    42   10   40 1
    43   11   41 1
    44   11   42 1
    45   12   43 1
    46   12   44 1
    47   13   45 1
    48   13   46 1
    49   14   47 1
    50   14   48 1
    51   15   49 1
    52   16   50 1
    53   17   51 1
    54   18   52 1
    55   18   53 1
    56   18   54 1
    57   19   55 1
    58   19   56 1
    59   19   57 1
    60   20   58 1
    61   20   59 1
    62   21   60 1
    63   21   61 1
    64   22   62 1
    65   22   63 1
    66   23   64 1
    67   24   65 1
    68   26   66 1
    69   26   67 1
    70   27   68 1
    71   27   69 1
    72   28   70 1
    73   29   71 1
    74   34   72 1
@<TRIPOS>MOLECULE
1dwc_ligand_90
   72    74     0     0     0
SMALL
USER_CHARGES

mmff94s_NoEstat = 76.91
@<TRIPOS>ATOM
      1 C1          1.6845   -5.9778    0.1844 C.ar      1 <0>        -0.1945
      2 C2          0.6520   -5.4496    0.9566 C.ar      1 <0>        -0.0294
      3 C3          1.9606   -5.4374   -1.0681 C.ar      1 <0>        -0.0143
      4 C4         -0.1093   -4.3725    0.4806 C.ar      1 <0>        -0.1552
      5 C5          0.1450   -3.8386   -0.7984 C.ar      1 <0>         0.3076
      6 C6          1.1982   -4.3739   -1.5539 C.ar      1 <0>        -0.4908
      7 C7          2.6281   -1.3042    2.5638 C.2       1 <0>         0.5994
      8 C8          2.9466   -1.3973   -0.6457 C.2       1 <0>         0.6462
      9 C9          7.8520   -2.9855   -5.5084 C.cat     1 <0>         0.6305
     10 C10        -1.2292   -3.8175    1.3278 C.3       1 <0>        -0.0319
     11 C11         5.7543   -2.0741    1.7663 C.3       1 <0>        -0.0918
     12 C12         4.6161    0.1433    2.3333 C.3       1 <0>        -0.0841
     13 C13         5.2430   -1.7129    0.3758 C.3       1 <0>         0.0870
     14 C14        -1.7931   -2.3309   -0.6108 C.3       1 <0>         0.2023
     15 C15         3.4337   -0.4666    1.5844 C.3       1 <0>         0.0778
     16 C16        -1.5940   -2.3850    0.9075 C.3       1 <0>        -0.0746
     17 C17         5.6648   -0.9011    2.7560 C.3       1 <0>        -0.0681
     18 C18        -2.8431   -1.9049    1.6414 C.3       1 <0>        -0.0944
     19 C19         7.0265   -0.2323    2.9523 C.3       1 <0>        -0.0918
     20 C20         5.1203   -2.1076   -3.7746 C.3       1 <0>        -0.1192
     21 C21         4.5564   -1.3488   -2.5679 C.3       1 <0>        -0.0916
     22 C22         6.2766   -1.3646   -4.4322 C.3       1 <0>         0.1883
     23 C23         3.4544   -2.1251   -1.8653 C.3       1 <0>         0.1952
     24 N1         -0.5924   -2.7711   -1.2958 N.pl3     1 <0>        -0.7670
     25 N2          3.8547   -1.2301    0.4039 N.am      1 <0>        -0.4509
     26 N3          8.3200   -3.6596   -6.6316 N.pl3     1 <0>        -0.8477
     27 N4          8.4571   -3.2169   -4.2779 N.pl3     1 <0>        -0.8633
     28 N5          6.7875   -2.0816   -5.5916 N.pl3     1 <0>        -0.7419
     29 N6          2.2741   -2.2179   -2.7432 N.pl3     1 <0>        -0.8860
     30 O1          2.1401   -0.8907    3.6051 O.2       1 <0>        -0.5199
     31 O2          1.7818   -0.9917   -0.6208 O.2       1 <0>        -0.6131
     32 O3          2.6686   -4.5798   -3.6918 O.2       1 <0>        -0.6576
     33 O4          0.3811   -3.5494   -3.8650 O.2       1 <0>        -0.6482
     34 O5          2.5235   -2.5830    2.1269 O.3       1 <0>        -0.6303
     35 S1          1.6226   -3.7401   -3.1398 S.o2      1 <0>         1.5193
     36 H1          2.2754   -6.8081    0.5612 H         1 <0>         0.1426
     37 H2          0.4453   -5.8762    1.9353 H         1 <0>         0.1398
     38 H3          2.7663   -5.8367   -1.6758 H         1 <0>         0.1599
     39 H4         -2.0994   -4.4781    1.2245 H         1 <0>         0.0574
     40 H5         -0.9335   -3.8165    2.3842 H         1 <0>         0.0629
     41 H6          5.1450   -2.9020    2.1525 H         1 <0>         0.0614
     42 H7          6.7810   -2.4531    1.7029 H         1 <0>         0.0593
     43 H8          5.0903    0.8874    1.6785 H         1 <0>         0.0841
     44 H9          4.2733    0.6894    3.2215 H         1 <0>         0.0679
     45 H10         5.8537   -0.9171   -0.0665 H         1 <0>         0.0826
     46 H11         5.3167   -2.5850   -0.2811 H         1 <0>         0.0383
     47 H12        -2.6365   -2.9647   -0.9116 H         1 <0>         0.0556
     48 H13        -2.0279   -1.3080   -0.9257 H         1 <0>         0.0415
     49 H14         2.7622    0.3365    1.2577 H         1 <0>         0.0851
     50 H15        -0.7654   -1.7164    1.1777 H         1 <0>         0.0639
     51 H16         5.3768   -1.3130    3.7317 H         1 <0>         0.0584
     52 H17        -2.9604   -0.8225    1.5328 H         1 <0>         0.0401
     53 H18        -3.7366   -2.3905    1.2379 H         1 <0>         0.0440
     54 H19        -2.7758   -2.1387    2.7081 H         1 <0>         0.0459
     55 H20         7.5288   -0.6354    3.8367 H         1 <0>         0.0456
     56 H21         7.6683   -0.4045    2.0831 H         1 <0>         0.0366
     57 H22         6.9087    0.8473    3.0852 H         1 <0>         0.0474
     58 H23         5.4592   -3.1007   -3.4560 H         1 <0>         0.0800
     59 H24         4.3307   -2.2553   -4.5204 H         1 <0>         0.0681
     60 H25         4.1906   -0.3664   -2.8945 H         1 <0>         0.0740
     61 H26         5.3633   -1.1575   -1.8491 H         1 <0>         0.0631
     62 H27         7.1023   -1.2161   -3.7290 H         1 <0>         0.0970
     63 H28         5.9419   -0.3800   -4.7739 H         1 <0>         0.0725
     64 H29         3.7703   -3.1244   -1.5692 H         1 <0>         0.0839
     65 H30        -0.4235   -2.4715   -2.2481 H         1 <0>         0.4531
     66 H31         7.9076   -3.5238   -7.5507 H         1 <0>         0.4798
     67 H32         9.0943   -4.3159   -6.5622 H         1 <0>         0.4881
     68 H33         8.1401   -2.7412   -3.4366 H         1 <0>         0.4801
     69 H34         9.2337   -3.8676   -4.1870 H         1 <0>         0.4806
     70 H35         6.3638   -1.9326   -6.5086 H         1 <0>         0.4689
     71 H36         1.6613   -1.3957   -2.7560 H         1 <0>         0.4505
     72 H37         2.0077   -3.1411    2.7472 H         1 <0>         0.4443
@<TRIPOS>BOND
     1    1    2 ar
     2    1    3 ar
     3    2    4 ar
     4    3    6 ar
     5    4    5 ar
     6    4   10 1
     7    5    6 ar
     8    5   24 1
     9    6   35 1
    10    7   15 1
    11    7   30 2
    12    7   34 1
    13    8   23 1
    14    8   25 am
    15    8   31 2
    16    9   26 1
    17    9   27 1
    18    9   28 1
    19   10   16 1
    20   11   13 1
    21   11   17 1
    22   12   15 1
    23   12   17 1
    24   13   25 1
    25   14   16 1
    26   14   24 1
    27   15   25 1
    28   16   18 1
    29   17   19 1
    30   20   21 1
    31   20   22 1
    32   21   23 1
    33   22   28 1
    34   23   29 1
    35   29   35 1
    36   32   35 2
    37   33   35 2
    38    1   36 1
    39    2   37 1
    40    3   38 1
    41   10   39 1
    42   10   40 1
    43   11   41 1
    44   11   42 1
    45   12   43 1
    46   12   44 1
    47   13   45 1
    48   13   46 1
    49   14   47 1
    50   14   48 1
    51   15   49 1
    52   16   50 1
    53   17   51 1
    54   18   52 1
    55   18   53 1
    56   18   54 1
    57   19   55 1
    58   19   56 1
    59   19   57 1
    60   20   58 1
    61   20   59 1
    62   21   60 1
    63   21   61 1
    64   22   62 1
    65   22   63 1
    66   23   64 1
    67   24   65 1
    68   26   66 1
    69   26   67 1
    70   27   68 1
    71   27   69 1
    72   28   70 1
    73   29   71 1
    74   34   72 1
@<TRIPOS>MOLECULE
1dwc_ligand_91
   72    74     0     0     0
SMALL
USER_CHARGES

mmff94s_NoEstat = 77.04
@<TRIPOS>ATOM
      1 C1          3.0864   -6.8132   -1.6121 C.ar      1 <0>        -0.1945
      2 C2          2.0235   -6.9752   -0.7260 C.ar      1 <0>        -0.0294
      3 C3          3.0725   -5.7656   -2.5283 C.ar      1 <0>        -0.0143
      4 C4          0.9399   -6.0855   -0.7488 C.ar      1 <0>        -0.1552
      5 C5          0.9045   -5.0397   -1.6925 C.ar      1 <0>         0.3076
      6 C6          1.9909   -4.8841   -2.5656 C.ar      1 <0>        -0.4908
      7 C7          1.8102   -1.5505    2.3702 C.2       1 <0>         0.5994
      8 C8          2.9466   -1.3973   -0.6457 C.2       1 <0>         0.6462
      9 C9          6.5364    0.5009   -5.9324 C.cat     1 <0>         0.6305
     10 C10        -0.2069   -6.2806    0.2139 C.3       1 <0>        -0.0319
     11 C11         4.4920   -3.4807    2.0801 C.3       1 <0>        -0.0918
     12 C12         4.1798   -1.0721    2.8769 C.3       1 <0>        -0.0841
     13 C13         4.5658   -2.7774    0.7291 C.3       1 <0>         0.0870
     14 C14        -1.3613   -4.3977   -0.9727 C.3       1 <0>         0.2023
     15 C15         3.1125   -1.0286    1.7861 C.3       1 <0>         0.0778
     16 C16        -1.0112   -4.9842    0.3988 C.3       1 <0>        -0.0746
     17 C17         4.5869   -2.5050    3.2643 C.3       1 <0>        -0.0681
     18 C18        -2.2700   -5.2387    1.2234 C.3       1 <0>        -0.0944
     19 C19         5.9882   -2.5079    3.8779 C.3       1 <0>        -0.0918
     20 C20         4.0666    0.0061   -3.0917 C.3       1 <0>        -0.1192
     21 C21         4.5564   -1.3488   -2.5679 C.3       1 <0>        -0.0916
     22 C22         5.1498    0.7503   -3.8628 C.3       1 <0>         0.1883
     23 C23         3.4544   -2.1251   -1.8653 C.3       1 <0>         0.1952
     24 N1         -0.1556   -4.1426   -1.7381 N.pl3     1 <0>        -0.7670
     25 N2          3.5192   -1.7560    0.5781 N.am      1 <0>        -0.4509
     26 N3          6.9409   -0.2356   -7.0409 N.pl3     1 <0>        -0.8477
     27 N4          7.0867    1.7598   -5.7173 N.pl3     1 <0>        -0.8633
     28 N5          5.5893    0.0019   -5.0317 N.pl3     1 <0>        -0.7419
     29 N6          2.2741   -2.2179   -2.7432 N.pl3     1 <0>        -0.8860
     30 O1          1.4308   -2.7108    2.3137 O.2       1 <0>        -0.5199
     31 O2          2.0685   -0.5400   -0.7710 O.2       1 <0>        -0.6131
     32 O3          3.2466   -3.7694   -4.5546 O.2       1 <0>        -0.6576
     33 O4          0.7526   -3.5048   -4.3692 O.2       1 <0>        -0.6482
     34 O5          1.1172   -0.5491    2.9655 O.3       1 <0>        -0.6303
     35 S1          2.0591   -3.5786   -3.7438 S.o2      1 <0>         1.5193
     36 H1          3.9266   -7.5016   -1.5854 H         1 <0>         0.1426
     37 H2          2.0443   -7.7948   -0.0116 H         1 <0>         0.1398
     38 H3          3.8977   -5.6260   -3.2193 H         1 <0>         0.1599
     39 H4         -0.8529   -7.0772   -0.1766 H         1 <0>         0.0574
     40 H5          0.1751   -6.6074    1.1889 H         1 <0>         0.0629
     41 H6          3.5311   -4.0088    2.1410 H         1 <0>         0.0614
     42 H7          5.2694   -4.2509    2.1463 H         1 <0>         0.0593
     43 H8          5.0641   -0.5305    2.5137 H         1 <0>         0.0841
     44 H9          3.8399   -0.5392    3.7741 H         1 <0>         0.0679
     45 H10         5.5312   -2.2723    0.6079 H         1 <0>         0.0826
     46 H11         4.4795   -3.5150   -0.0747 H         1 <0>         0.0383
     47 H12        -2.0084   -5.0849   -1.5319 H         1 <0>         0.0556
     48 H13        -1.9126   -3.4583   -0.8533 H         1 <0>         0.0415
     49 H14         2.9188    0.0160    1.5141 H         1 <0>         0.0851
     50 H15        -0.3913   -4.2593    0.9436 H         1 <0>         0.0639
     51 H16         3.9047   -2.8651    4.0450 H         1 <0>         0.0584
     52 H17        -2.7070   -4.2936    1.5593 H         1 <0>         0.0401
     53 H18        -3.0178   -5.7721    0.6290 H         1 <0>         0.0440
     54 H19        -2.0361   -5.8426    2.1053 H         1 <0>         0.0459
     55 H20         6.0310   -3.1862    4.7353 H         1 <0>         0.0456
     56 H21         6.7293   -2.8350    3.1425 H         1 <0>         0.0366
     57 H22         6.2606   -1.5045    4.2187 H         1 <0>         0.0474
     58 H23         3.1961   -0.1462   -3.7411 H         1 <0>         0.0800
     59 H24         3.7428    0.6319   -2.2522 H         1 <0>         0.0681
     60 H25         5.4094   -1.1917   -1.8946 H         1 <0>         0.0740
     61 H26         4.9285   -1.9502   -3.4070 H         1 <0>         0.0631
     62 H27         6.0226    0.9442   -3.2312 H         1 <0>         0.0970
     63 H28         4.7647    1.7133   -4.2128 H         1 <0>         0.0725
     64 H29         3.7703   -3.1244   -1.5692 H         1 <0>         0.0839
     65 H30        -0.1728   -3.4550   -2.4811 H         1 <0>         0.4531
     66 H31         6.5676   -1.1605   -7.2371 H         1 <0>         0.4798
     67 H32         7.6308    0.1346   -7.6906 H         1 <0>         0.4881
     68 H33         6.8135    2.3249   -4.9169 H         1 <0>         0.4801
     69 H34         7.7763    2.1491   -6.3557 H         1 <0>         0.4806
     70 H35         5.2033   -0.9252   -5.2162 H         1 <0>         0.4689
     71 H36         1.4502   -1.6870   -2.4414 H         1 <0>         0.4505
     72 H37         0.2712   -0.8659    3.3478 H         1 <0>         0.4443
@<TRIPOS>BOND
     1    1    2 ar
     2    1    3 ar
     3    2    4 ar
     4    3    6 ar
     5    4    5 ar
     6    4   10 1
     7    5    6 ar
     8    5   24 1
     9    6   35 1
    10    7   15 1
    11    7   30 2
    12    7   34 1
    13    8   23 1
    14    8   25 am
    15    8   31 2
    16    9   26 1
    17    9   27 1
    18    9   28 1
    19   10   16 1
    20   11   13 1
    21   11   17 1
    22   12   15 1
    23   12   17 1
    24   13   25 1
    25   14   16 1
    26   14   24 1
    27   15   25 1
    28   16   18 1
    29   17   19 1
    30   20   21 1
    31   20   22 1
    32   21   23 1
    33   22   28 1
    34   23   29 1
    35   29   35 1
    36   32   35 2
    37   33   35 2
    38    1   36 1
    39    2   37 1
    40    3   38 1
    41   10   39 1
    42   10   40 1
    43   11   41 1
    44   11   42 1
    45   12   43 1
    46   12   44 1
    47   13   45 1
    48   13   46 1
    49   14   47 1
    50   14   48 1
    51   15   49 1
    52   16   50 1
    53   17   51 1
    54   18   52 1
    55   18   53 1
    56   18   54 1
    57   19   55 1
    58   19   56 1
    59   19   57 1
    60   20   58 1
    61   20   59 1
    62   21   60 1
    63   21   61 1
    64   22   62 1
    65   22   63 1
    66   23   64 1
    67   24   65 1
    68   26   66 1
    69   26   67 1
    70   27   68 1
    71   27   69 1
    72   28   70 1
    73   29   71 1
    74   34   72 1
@<TRIPOS>MOLECULE
1dwc_ligand_92
   72    74     0     0     0
SMALL
USER_CHARGES

mmff94s_NoEstat = 77.09
@<TRIPOS>ATOM
      1 C1         -3.2355   -5.0148    6.4799 C.ar      1 <0>        -0.1945
      2 C2         -4.2884   -5.5400    5.7336 C.ar      1 <0>        -0.0294
      3 C3         -2.6234   -3.8310    6.0789 C.ar      1 <0>        -0.0143
      4 C4         -4.7385   -4.8800    4.5812 C.ar      1 <0>        -0.1552
      5 C5         -4.1052   -3.6965    4.1523 C.ar      1 <0>         0.3076
      6 C6         -3.0575   -3.1757    4.9254 C.ar      1 <0>        -0.4908
      7 C7          3.6572    0.2351    4.2205 C.2       1 <0>         0.5994
      8 C8          0.8654   -1.4427    3.2413 C.2       1 <0>         0.6462
      9 C9         -0.0382   -5.7761   -1.6019 C.cat     1 <0>         0.6305
     10 C10        -5.8759   -5.4673    3.7804 C.3       1 <0>        -0.0319
     11 C11         3.8985   -3.4862    3.6166 C.3       1 <0>        -0.0918
     12 C12         4.5525   -1.3270    2.5319 C.3       1 <0>        -0.0841
     13 C13         2.6738   -2.8056    4.2145 C.3       1 <0>         0.0870
     14 C14        -5.4818   -3.6385    2.1112 C.3       1 <0>         0.2023
     15 C15         3.2751   -0.6689    3.0601 C.3       1 <0>         0.0778
     16 C16        -6.5499   -4.4038    2.8993 C.3       1 <0>        -0.0746
     17 C17         5.0385   -2.4845    3.4144 C.3       1 <0>        -0.0681
     18 C18        -7.5704   -5.0425    1.9612 C.3       1 <0>        -0.0944
     19 C19         6.2563   -3.1661    2.7936 C.3       1 <0>        -0.0918
     20 C20        -0.5404   -4.8511    2.0458 C.3       1 <0>        -0.1192
     21 C21         0.3004   -3.5693    2.0376 C.3       1 <0>        -0.0916
     22 C22        -0.1768   -5.7847    0.8978 C.3       1 <0>         0.1883
     23 C23        -0.0078   -2.6730    3.2260 C.3       1 <0>         0.1952
     24 N1         -4.5300   -3.0206    3.0151 N.pl3     1 <0>        -0.7670
     25 N2          2.2374   -1.6470    3.4280 N.am      1 <0>        -0.4509
     26 N3         -0.2239   -5.1414   -2.8257 N.pl3     1 <0>        -0.8477
     27 N4          0.4773   -7.0675   -1.5794 N.pl3     1 <0>        -0.8633
     28 N5         -0.3589   -5.1430   -0.3963 N.pl3     1 <0>        -0.7419
     29 N6         -1.3760   -2.1385    3.1042 N.pl3     1 <0>        -0.8860
     30 O1          3.6315   -0.0869    5.3991 O.2       1 <0>        -0.5199
     31 O2          0.3435   -0.3338    3.0981 O.2       1 <0>        -0.6131
     32 O3         -3.2514   -0.7039    4.1330 O.2       1 <0>        -0.6576
     33 O4         -1.2997   -1.3890    5.5632 O.2       1 <0>        -0.6482
     34 O5          4.0314    1.4581    3.7715 O.3       1 <0>        -0.6303
     35 S1         -2.2397   -1.6774    4.4970 S.o2      1 <0>         1.5193
     36 H1         -2.8954   -5.5270    7.3757 H         1 <0>         0.1426
     37 H2         -4.7626   -6.4639    6.0561 H         1 <0>         0.1398
     38 H3         -1.8065   -3.4094    6.6557 H         1 <0>         0.1599
     39 H4         -5.4767   -6.2793    3.1592 H         1 <0>         0.0574
     40 H5         -6.6243   -5.8997    4.4558 H         1 <0>         0.0629
     41 H6          4.2244   -4.2993    4.2761 H         1 <0>         0.0614
     42 H7          3.6296   -3.9402    2.6542 H         1 <0>         0.0593
     43 H8          4.3500   -1.7152    1.5243 H         1 <0>         0.0841
     44 H9          5.3525   -0.5834    2.4253 H         1 <0>         0.0679
     45 H10         1.8623   -3.5349    4.3059 H         1 <0>         0.0826
     46 H11         2.8945   -2.4435    5.2260 H         1 <0>         0.0383
     47 H12        -4.9499   -4.3126    1.4283 H         1 <0>         0.0556
     48 H13        -5.9488   -2.8592    1.4988 H         1 <0>         0.0415
     49 H14         2.8873    0.0006    2.2858 H         1 <0>         0.0851
     50 H15        -7.0837   -3.6956    3.5475 H         1 <0>         0.0639
     51 H16         5.3432   -2.0892    4.3913 H         1 <0>         0.0584
     52 H17        -8.2149   -4.2783    1.5167 H         1 <0>         0.0401
     53 H18        -7.0658   -5.5804    1.1530 H         1 <0>         0.0440
     54 H19        -8.2016   -5.7514    2.5054 H         1 <0>         0.0459
     55 H20         6.5585   -2.6519    1.8763 H         1 <0>         0.0456
     56 H21         7.1004   -3.1536    3.4896 H         1 <0>         0.0366
     57 H22         6.0293   -4.2073    2.5458 H         1 <0>         0.0474
     58 H23        -0.4002   -5.3741    2.9994 H         1 <0>         0.0800
     59 H24        -1.6035   -4.5964    1.9658 H         1 <0>         0.0681
     60 H25         0.1357   -3.0322    1.0943 H         1 <0>         0.0740
     61 H26         1.3654   -3.8328    2.0643 H         1 <0>         0.0631
     62 H27        -0.7862   -6.6937    0.9190 H         1 <0>         0.0970
     63 H28         0.8744   -6.0800    0.9749 H         1 <0>         0.0725
     64 H29         0.1003   -3.1895    4.1787 H         1 <0>         0.0839
     65 H30        -3.9968   -2.2176    2.7049 H         1 <0>         0.4531
     66 H31        -0.5995   -4.1991   -2.8910 H         1 <0>         0.4798
     67 H32         0.0114   -5.6094   -3.6979 H         1 <0>         0.4881
     68 H33         0.6256   -7.5607   -0.7023 H         1 <0>         0.4801
     69 H34         0.7207   -7.5524   -2.4398 H         1 <0>         0.4806
     70 H35        -0.7354   -4.1951   -0.4451 H         1 <0>         0.4689
     71 H36        -1.6042   -1.6955    2.2078 H         1 <0>         0.4505
     72 H37         4.2804    2.0579    4.5068 H         1 <0>         0.4443
@<TRIPOS>BOND
     1    1    2 ar
     2    1    3 ar
     3    2    4 ar
     4    3    6 ar
     5    4    5 ar
     6    4   10 1
     7    5    6 ar
     8    5   24 1
     9    6   35 1
    10    7   15 1
    11    7   30 2
    12    7   34 1
    13    8   23 1
    14    8   25 am
    15    8   31 2
    16    9   26 1
    17    9   27 1
    18    9   28 1
    19   10   16 1
    20   11   13 1
    21   11   17 1
    22   12   15 1
    23   12   17 1
    24   13   25 1
    25   14   16 1
    26   14   24 1
    27   15   25 1
    28   16   18 1
    29   17   19 1
    30   20   21 1
    31   20   22 1
    32   21   23 1
    33   22   28 1
    34   23   29 1
    35   29   35 1
    36   32   35 2
    37   33   35 2
    38    1   36 1
    39    2   37 1
    40    3   38 1
    41   10   39 1
    42   10   40 1
    43   11   41 1
    44   11   42 1
    45   12   43 1
    46   12   44 1
    47   13   45 1
    48   13   46 1
    49   14   47 1
    50   14   48 1
    51   15   49 1
    52   16   50 1
    53   17   51 1
    54   18   52 1
    55   18   53 1
    56   18   54 1
    57   19   55 1
    58   19   56 1
    59   19   57 1
    60   20   58 1
    61   20   59 1
    62   21   60 1
    63   21   61 1
    64   22   62 1
    65   22   63 1
    66   23   64 1
    67   24   65 1
    68   26   66 1
    69   26   67 1
    70   27   68 1
    71   27   69 1
    72   28   70 1
    73   29   71 1
    74   34   72 1
@<TRIPOS>MOLECULE
1dwc_ligand_93
   72    74     0     0     0
SMALL
USER_CHARGES

mmff94s_NoEstat = 77.10
@<TRIPOS>ATOM
      1 C1         -2.2710   -1.6623    7.6435 C.ar      1 <0>        -0.1945
      2 C2         -1.5255   -2.6695    8.2527 C.ar      1 <0>        -0.0294
      3 C3         -2.6085   -1.7664    6.2973 C.ar      1 <0>        -0.0143
      4 C4         -1.1160   -3.7912    7.5176 C.ar      1 <0>        -0.1552
      5 C5         -1.4288   -3.8903    6.1472 C.ar      1 <0>         0.3076
      6 C6         -2.1929   -2.8737    5.5561 C.ar      1 <0>        -0.4908
      7 C7          3.7233   -2.4449    4.7893 C.2       1 <0>         0.5994
      8 C8          0.8654   -1.4427    3.2413 C.2       1 <0>         0.6462
      9 C9          1.3456   -6.9412   -0.3642 C.cat     1 <0>         0.6305
     10 C10        -0.3024   -4.8697    8.1922 C.3       1 <0>        -0.0319
     11 C11         1.7658    0.4222    6.2790 C.3       1 <0>        -0.0918
     12 C12         2.2228   -2.0030    6.6989 C.3       1 <0>        -0.0841
     13 C13         1.9003    0.1799    4.7810 C.3       1 <0>         0.0870
     14 C14        -0.0979   -5.9519    5.9398 C.3       1 <0>         0.2023
     15 C15         2.2690   -2.2605    5.1905 C.3       1 <0>         0.0778
     16 C16        -0.3856   -6.1984    7.4244 C.3       1 <0>        -0.0746
     17 C17         2.6202   -0.5689    7.0736 C.3       1 <0>        -0.0681
     18 C18         0.5827   -7.2241    8.0072 C.3       1 <0>        -0.0944
     19 C19         2.4647   -0.3375    8.5754 C.3       1 <0>        -0.0918
     20 C20         1.7689   -4.0083    2.0091 C.3       1 <0>        -0.1192
     21 C21         0.3004   -3.5693    2.0376 C.3       1 <0>        -0.0916
     22 C22         2.0958   -4.8429    0.7769 C.3       1 <0>         0.1883
     23 C23        -0.0078   -2.6730    3.2260 C.3       1 <0>         0.1952
     24 N1         -1.0371   -4.9903    5.3941 N.pl3     1 <0>        -0.7670
     25 N2          1.5999   -1.2067    4.4091 N.am      1 <0>        -0.4509
     26 N3          0.5495   -8.0810   -0.4079 N.pl3     1 <0>        -0.8477
     27 N4          2.2318   -6.6929   -1.4069 N.pl3     1 <0>        -0.8633
     28 N5          1.2730   -6.0418    0.7049 N.pl3     1 <0>        -0.7419
     29 N6         -1.3760   -2.1385    3.1042 N.pl3     1 <0>        -0.8860
     30 O1          4.4523   -1.5599    4.3665 O.2       1 <0>        -0.5199
     31 O2          0.8891   -0.7105    2.2483 O.2       1 <0>        -0.6131
     32 O3         -2.6902   -4.3257    3.4539 O.2       1 <0>        -0.6576
     33 O4         -3.8691   -2.1223    3.7357 O.2       1 <0>        -0.6482
     34 O5          4.1079   -3.7331    4.9617 O.3       1 <0>        -0.6303
     35 S1         -2.6746   -2.9347    3.8647 S.o2      1 <0>         1.5193
     36 H1         -2.5913   -0.7986    8.2197 H         1 <0>         0.1426
     37 H2         -1.2690   -2.5812    9.3057 H         1 <0>         0.1398
     38 H3         -3.1940   -0.9909    5.8138 H         1 <0>         0.1599
     39 H4          0.7390   -4.5290    8.2522 H         1 <0>         0.0574
     40 H5         -0.6633   -5.0246    9.2164 H         1 <0>         0.0629
     41 H6          2.0669    1.4503    6.5123 H         1 <0>         0.0614
     42 H7          0.7128    0.3207    6.5714 H         1 <0>         0.0593
     43 H8          1.1978   -2.1858    7.0494 H         1 <0>         0.0841
     44 H9          2.8666   -2.7151    7.2306 H         1 <0>         0.0679
     45 H10         1.2456    0.8722    4.2416 H         1 <0>         0.0826
     46 H11         2.9258    0.3867    4.4518 H         1 <0>         0.0383
     47 H12         0.9249   -5.5797    5.8021 H         1 <0>         0.0556
     48 H13        -0.1803   -6.8886    5.3775 H         1 <0>         0.0415
     49 H14         1.7884   -3.2235    4.9909 H         1 <0>         0.0851
     50 H15        -1.4032   -6.5999    7.5237 H         1 <0>         0.0639
     51 H16         3.6763   -0.4106    6.8224 H         1 <0>         0.0584
     52 H17         0.3544   -8.2256    7.6305 H         1 <0>         0.0401
     53 H18         1.6132   -6.9794    7.7327 H         1 <0>         0.0440
     54 H19         0.5120   -7.2425    9.0989 H         1 <0>         0.0459
     55 H20         2.1532   -1.2591    9.0761 H         1 <0>         0.0456
     56 H21         3.4121   -0.0103    9.0142 H         1 <0>         0.0366
     57 H22         1.7112    0.4316    8.7697 H         1 <0>         0.0474
     58 H23         2.4156   -3.1229    2.0318 H         1 <0>         0.0800
     59 H24         1.9949   -4.6013    2.9028 H         1 <0>         0.0681
     60 H25        -0.3448   -4.4577    2.0448 H         1 <0>         0.0740
     61 H26         0.0666   -3.0218    1.1158 H         1 <0>         0.0631
     62 H27         3.1472   -5.1474    0.7729 H         1 <0>         0.0970
     63 H28         1.9091   -4.2592   -0.1301 H         1 <0>         0.0725
     64 H29         0.1003   -3.1895    4.1787 H         1 <0>         0.0839
     65 H30        -1.2193   -4.9813    4.3981 H         1 <0>         0.4531
     66 H31        -0.1107   -8.3043    0.3321 H         1 <0>         0.4798
     67 H32         0.6091   -8.7303   -1.1889 H         1 <0>         0.4881
     68 H33         2.8285   -5.8692   -1.4068 H         1 <0>         0.4801
     69 H34         2.3056   -7.3283   -2.1978 H         1 <0>         0.4806
     70 H35         0.6129   -6.2511    1.4553 H         1 <0>         0.4689
     71 H36        -1.4476   -1.1318    2.9219 H         1 <0>         0.4505
     72 H37         5.0446   -3.8732    4.7061 H         1 <0>         0.4443
@<TRIPOS>BOND
     1    1    2 ar
     2    1    3 ar
     3    2    4 ar
     4    3    6 ar
     5    4    5 ar
     6    4   10 1
     7    5    6 ar
     8    5   24 1
     9    6   35 1
    10    7   15 1
    11    7   30 2
    12    7   34 1
    13    8   23 1
    14    8   25 am
    15    8   31 2
    16    9   26 1
    17    9   27 1
    18    9   28 1
    19   10   16 1
    20   11   13 1
    21   11   17 1
    22   12   15 1
    23   12   17 1
    24   13   25 1
    25   14   16 1
    26   14   24 1
    27   15   25 1
    28   16   18 1
    29   17   19 1
    30   20   21 1
    31   20   22 1
    32   21   23 1
    33   22   28 1
    34   23   29 1
    35   29   35 1
    36   32   35 2
    37   33   35 2
    38    1   36 1
    39    2   37 1
    40    3   38 1
    41   10   39 1
    42   10   40 1
    43   11   41 1
    44   11   42 1
    45   12   43 1
    46   12   44 1
    47   13   45 1
    48   13   46 1
    49   14   47 1
    50   14   48 1
    51   15   49 1
    52   16   50 1
    53   17   51 1
    54   18   52 1
    55   18   53 1
    56   18   54 1
    57   19   55 1
    58   19   56 1
    59   19   57 1
    60   20   58 1
    61   20   59 1
    62   21   60 1
    63   21   61 1
    64   22   62 1
    65   22   63 1
    66   23   64 1
    67   24   65 1
    68   26   66 1
    69   26   67 1
    70   27   68 1
    71   27   69 1
    72   28   70 1
    73   29   71 1
    74   34   72 1
@<TRIPOS>MOLECULE
1dwc_ligand_94
   72    74     0     0     0
SMALL
USER_CHARGES

mmff94s_NoEstat = 77.12
@<TRIPOS>ATOM
      1 C1         -1.5516   -4.4277    7.3298 C.ar      1 <0>        -0.1945
      2 C2         -2.3348   -5.5104    6.9352 C.ar      1 <0>        -0.0294
      3 C3         -1.5385   -3.2654    6.5644 C.ar      1 <0>        -0.0143
      4 C4         -3.1142   -5.4347    5.7720 C.ar      1 <0>        -0.1552
      5 C5         -3.0840   -4.2723    4.9761 C.ar      1 <0>         0.3076
      6 C6         -2.3015   -3.1877    5.3982 C.ar      1 <0>        -0.4908
      7 C7          3.7233   -2.4449    4.7893 C.2       1 <0>         0.5994
      8 C8          0.8654   -1.4427    3.2413 C.2       1 <0>         0.6462
      9 C9          2.1577   -4.6267   -1.7165 C.cat     1 <0>         0.6305
     10 C10        -3.9512   -6.6204    5.3554 C.3       1 <0>        -0.0319
     11 C11         1.7658    0.4222    6.2790 C.3       1 <0>        -0.0918
     12 C12         2.2228   -2.0030    6.6989 C.3       1 <0>        -0.0841
     13 C13         1.9003    0.1799    4.7810 C.3       1 <0>         0.0870
     14 C14        -4.5113   -5.3376    3.2753 C.3       1 <0>         0.2023
     15 C15         2.2690   -2.2605    5.1905 C.3       1 <0>         0.0778
     16 C16        -5.0831   -6.2018    4.4040 C.3       1 <0>        -0.0746
     17 C17         2.6202   -0.5689    7.0736 C.3       1 <0>        -0.0681
     18 C18        -5.8039   -7.4257    3.8454 C.3       1 <0>        -0.0944
     19 C19         2.4647   -0.3375    8.5754 C.3       1 <0>        -0.0918
     20 C20         1.7689   -4.0083    2.0091 C.3       1 <0>        -0.1192
     21 C21         0.3004   -3.5693    2.0376 C.3       1 <0>        -0.0916
     22 C22         2.0958   -4.8429    0.7769 C.3       1 <0>         0.1883
     23 C23        -0.0078   -2.6730    3.2260 C.3       1 <0>         0.1952
     24 N1         -3.8463   -4.1684    3.8190 N.pl3     1 <0>        -0.7670
     25 N2          1.5999   -1.2067    4.4091 N.am      1 <0>        -0.4509
     26 N3          1.9356   -3.8927   -2.8771 N.pl3     1 <0>        -0.8477
     27 N4          2.6719   -5.9149   -1.8171 N.pl3     1 <0>        -0.8633
     28 N5          1.8751   -4.0962   -0.4532 N.pl3     1 <0>        -0.7419
     29 N6         -1.3760   -2.1385    3.1042 N.pl3     1 <0>        -0.8860
     30 O1          4.4523   -1.5599    4.3665 O.2       1 <0>        -0.5199
     31 O2          0.8891   -0.7105    2.2483 O.2       1 <0>        -0.6131
     32 O3         -3.5960   -1.3232    4.1243 O.2       1 <0>        -0.6576
     33 O4         -1.4314   -0.7555    5.2719 O.2       1 <0>        -0.6482
     34 O5          4.1079   -3.7331    4.9617 O.3       1 <0>        -0.6303
     35 S1         -2.2397   -1.6774    4.4970 S.o2      1 <0>         1.5193
     36 H1         -0.9549   -4.4896    8.2356 H         1 <0>         0.1426
     37 H2         -2.3412   -6.4135    7.5409 H         1 <0>         0.1398
     38 H3         -0.9370   -2.4135    6.8653 H         1 <0>         0.1599
     39 H4         -3.2943   -7.3516    4.8675 H         1 <0>         0.0574
     40 H5         -4.3865   -7.1001    6.2407 H         1 <0>         0.0629
     41 H6          2.0669    1.4503    6.5123 H         1 <0>         0.0614
     42 H7          0.7128    0.3207    6.5714 H         1 <0>         0.0593
     43 H8          1.1978   -2.1858    7.0494 H         1 <0>         0.0841
     44 H9          2.8666   -2.7151    7.2306 H         1 <0>         0.0679
     45 H10         1.2456    0.8722    4.2416 H         1 <0>         0.0826
     46 H11         2.9258    0.3867    4.4518 H         1 <0>         0.0383
     47 H12        -3.7986   -5.9137    2.6721 H         1 <0>         0.0556
     48 H13        -5.3138   -5.0110    2.6047 H         1 <0>         0.0415
     49 H14         1.7884   -3.2235    4.9909 H         1 <0>         0.0851
     50 H15        -5.8148   -5.6064    4.9667 H         1 <0>         0.0639
     51 H16         3.6763   -0.4106    6.8224 H         1 <0>         0.0584
     52 H17        -6.7464   -7.1341    3.3725 H         1 <0>         0.0401
     53 H18        -5.1841   -7.9286    3.0971 H         1 <0>         0.0440
     54 H19        -6.0259   -8.1390    4.6448 H         1 <0>         0.0459
     55 H20         2.1532   -1.2591    9.0761 H         1 <0>         0.0456
     56 H21         3.4121   -0.0103    9.0142 H         1 <0>         0.0366
     57 H22         1.7112    0.4316    8.7697 H         1 <0>         0.0474
     58 H23         2.4156   -3.1229    2.0318 H         1 <0>         0.0800
     59 H24         1.9949   -4.6013    2.9028 H         1 <0>         0.0681
     60 H25        -0.3448   -4.4577    2.0448 H         1 <0>         0.0740
     61 H26         0.0666   -3.0218    1.1158 H         1 <0>         0.0631
     62 H27         1.4860   -5.7513    0.7413 H         1 <0>         0.0970
     63 H28         3.1484   -5.1425    0.7970 H         1 <0>         0.0725
     64 H29         0.1003   -3.1895    4.1787 H         1 <0>         0.0839
     65 H30        -3.7341   -3.3447    3.2409 H         1 <0>         0.4531
     66 H31         1.5595   -2.9487   -2.8523 H         1 <0>         0.4798
     67 H32         2.1433   -4.2863   -3.7920 H         1 <0>         0.4881
     68 H33         2.8463   -6.4791   -0.9889 H         1 <0>         0.4801
     69 H34         2.8881   -6.3264   -2.7218 H         1 <0>         0.4806
     70 H35         1.4985   -3.1480   -0.4116 H         1 <0>         0.4689
     71 H36        -1.6042   -1.6955    2.2078 H         1 <0>         0.4505
     72 H37         5.0446   -3.8732    4.7061 H         1 <0>         0.4443
@<TRIPOS>BOND
     1    1    2 ar
     2    1    3 ar
     3    2    4 ar
     4    3    6 ar
     5    4    5 ar
     6    4   10 1
     7    5    6 ar
     8    5   24 1
     9    6   35 1
    10    7   15 1
    11    7   30 2
    12    7   34 1
    13    8   23 1
    14    8   25 am
    15    8   31 2
    16    9   26 1
    17    9   27 1
    18    9   28 1
    19   10   16 1
    20   11   13 1
    21   11   17 1
    22   12   15 1
    23   12   17 1
    24   13   25 1
    25   14   16 1
    26   14   24 1
    27   15   25 1
    28   16   18 1
    29   17   19 1
    30   20   21 1
    31   20   22 1
    32   21   23 1
    33   22   28 1
    34   23   29 1
    35   29   35 1
    36   32   35 2
    37   33   35 2
    38    1   36 1
    39    2   37 1
    40    3   38 1
    41   10   39 1
    42   10   40 1
    43   11   41 1
    44   11   42 1
    45   12   43 1
    46   12   44 1
    47   13   45 1
    48   13   46 1
    49   14   47 1
    50   14   48 1
    51   15   49 1
    52   16   50 1
    53   17   51 1
    54   18   52 1
    55   18   53 1
    56   18   54 1
    57   19   55 1
    58   19   56 1
    59   19   57 1
    60   20   58 1
    61   20   59 1
    62   21   60 1
    63   21   61 1
    64   22   62 1
    65   22   63 1
    66   23   64 1
    67   24   65 1
    68   26   66 1
    69   26   67 1
    70   27   68 1
    71   27   69 1
    72   28   70 1
    73   29   71 1
    74   34   72 1
@<TRIPOS>MOLECULE
1dwc_ligand_95
   72    74     0     0     0
SMALL
USER_CHARGES

mmff94s_NoEstat = 77.12
@<TRIPOS>ATOM
      1 C1         -0.5523    1.6744    5.9041 C.ar      1 <0>        -0.1945
      2 C2         -0.9694    2.6552    5.0066 C.ar      1 <0>        -0.0294
      3 C3         -0.9569    0.3546    5.7269 C.ar      1 <0>        -0.0143
      4 C4         -1.7923    2.3195    3.9220 C.ar      1 <0>        -0.1552
      5 C5         -2.2299    0.9909    3.7521 C.ar      1 <0>         0.3076
      6 C6         -1.7869    0.0155    4.6571 C.ar      1 <0>        -0.4908
      7 C7          4.0428   -2.6510    3.1279 C.2       1 <0>         0.5994
      8 C8          0.8654   -1.4427    3.2413 C.2       1 <0>         0.6462
      9 C9          1.6156   -7.3323    1.7100 C.cat     1 <0>         0.6305
     10 C10        -2.2407    3.3967    2.9635 C.3       1 <0>        -0.0319
     11 C11         3.0349   -0.4758    6.0475 C.3       1 <0>        -0.0918
     12 C12         3.4817   -2.8819    5.5206 C.3       1 <0>        -0.0841
     13 C13         2.5314   -0.2662    4.6251 C.3       1 <0>         0.0870
     14 C14        -3.6561    1.6489    1.8554 C.3       1 <0>         0.2023
     15 C15         2.8926   -2.6899    4.1206 C.3       1 <0>         0.0778
     16 C16        -2.6763    2.8021    1.6150 C.3       1 <0>        -0.0746
     17 C17         4.0802   -1.5931    6.1000 C.3       1 <0>        -0.0681
     18 C18        -3.2993    3.8738    0.7246 C.3       1 <0>        -0.0944
     19 C19         4.5654   -1.8157    7.5311 C.3       1 <0>        -0.0918
     20 C20        -0.5404   -4.8511    2.0458 C.3       1 <0>        -0.1192
     21 C21         0.3004   -3.5693    2.0376 C.3       1 <0>        -0.0916
     22 C22        -0.1768   -5.7847    0.8978 C.3       1 <0>         0.1883
     23 C23        -0.0078   -2.6730    3.2260 C.3       1 <0>         0.1952
     24 N1         -3.0449    0.6290    2.6865 N.pl3     1 <0>        -0.7670
     25 N2          2.0252   -1.5038    4.0223 N.am      1 <0>        -0.4509
     26 N3          2.9496   -7.7229    1.7631 N.pl3     1 <0>        -0.8477
     27 N4          0.6648   -8.0708    2.4061 N.pl3     1 <0>        -0.8633
     28 N5          1.2122   -6.2141    0.9723 N.pl3     1 <0>        -0.7419
     29 N6         -1.3760   -2.1385    3.1042 N.pl3     1 <0>        -0.8860
     30 O1          4.5855   -1.6340    2.7222 O.2       1 <0>        -0.5199
     31 O2          0.5240   -0.4555    2.5844 O.2       1 <0>        -0.6131
     32 O3         -1.7140   -2.3916    5.6449 O.2       1 <0>        -0.6576
     33 O4         -3.6601   -1.7094    4.2056 O.2       1 <0>        -0.6482
     34 O5          4.3885   -3.9048    2.7464 O.3       1 <0>        -0.6303
     35 S1         -2.2397   -1.6774    4.4970 S.o2      1 <0>         1.5193
     36 H1          0.0908    1.9391    6.7389 H         1 <0>         0.1426
     37 H2         -0.6459    3.6833    5.1512 H         1 <0>         0.1398
     38 H3         -0.6333   -0.4189    6.4161 H         1 <0>         0.1599
     39 H4         -3.0724    3.9441    3.4249 H         1 <0>         0.0574
     40 H5         -1.4243    4.1094    2.7937 H         1 <0>         0.0629
     41 H6          3.4643    0.4595    6.4257 H         1 <0>         0.0614
     42 H7          2.1893   -0.7290    6.6997 H         1 <0>         0.0593
     43 H8          2.6805   -3.2276    6.1882 H         1 <0>         0.0841
     44 H9          4.2439   -3.6714    5.5123 H         1 <0>         0.0679
     45 H10         1.7550    0.5058    4.6255 H         1 <0>         0.0826
     46 H11         3.3431    0.0962    3.9827 H         1 <0>         0.0383
     47 H12        -4.5696    2.0142    2.3409 H         1 <0>         0.0556
     48 H13        -3.9536    1.1996    0.9014 H         1 <0>         0.0415
     49 H14         2.3173   -3.5850    3.8636 H         1 <0>         0.0851
     50 H15        -1.7894    2.4087    1.1001 H         1 <0>         0.0639
     51 H16         4.9487   -1.2974    5.4988 H         1 <0>         0.0584
     52 H17        -3.3831    3.5161   -0.3060 H         1 <0>         0.0401
     53 H18        -4.3001    4.1356    1.0809 H         1 <0>         0.0440
     54 H19        -2.6852    4.7793    0.7260 H         1 <0>         0.0459
     55 H20         4.4326   -2.8615    7.8238 H         1 <0>         0.0456
     56 H21         5.6267   -1.5650    7.6207 H         1 <0>         0.0366
     57 H22         4.0032   -1.1886    8.2295 H         1 <0>         0.0474
     58 H23        -0.4002   -5.3741    2.9994 H         1 <0>         0.0800
     59 H24        -1.6035   -4.5964    1.9658 H         1 <0>         0.0681
     60 H25         0.1357   -3.0322    1.0943 H         1 <0>         0.0740
     61 H26         1.3654   -3.8328    2.0643 H         1 <0>         0.0631
     62 H27        -0.3350   -5.3004   -0.0711 H         1 <0>         0.0970
     63 H28        -0.8024   -6.6822    0.9336 H         1 <0>         0.0725
     64 H29         0.1003   -3.1895    4.1787 H         1 <0>         0.0839
     65 H30        -3.3945   -0.3205    2.6487 H         1 <0>         0.4531
     66 H31         3.6785   -7.2150    1.2691 H         1 <0>         0.4798
     67 H32         3.2344   -8.5378    2.3016 H         1 <0>         0.4881
     68 H33        -0.3190   -7.8132    2.3888 H         1 <0>         0.4801
     69 H34         0.9286   -8.8877    2.9518 H         1 <0>         0.4806
     70 H35         1.9332   -5.6921    0.4720 H         1 <0>         0.4689
     71 H36        -1.6042   -1.6955    2.2078 H         1 <0>         0.4505
     72 H37         5.1292   -3.9010    2.1032 H         1 <0>         0.4443
@<TRIPOS>BOND
     1    1    2 ar
     2    1    3 ar
     3    2    4 ar
     4    3    6 ar
     5    4    5 ar
     6    4   10 1
     7    5    6 ar
     8    5   24 1
     9    6   35 1
    10    7   15 1
    11    7   30 2
    12    7   34 1
    13    8   23 1
    14    8   25 am
    15    8   31 2
    16    9   26 1
    17    9   27 1
    18    9   28 1
    19   10   16 1
    20   11   13 1
    21   11   17 1
    22   12   15 1
    23   12   17 1
    24   13   25 1
    25   14   16 1
    26   14   24 1
    27   15   25 1
    28   16   18 1
    29   17   19 1
    30   20   21 1
    31   20   22 1
    32   21   23 1
    33   22   28 1
    34   23   29 1
    35   29   35 1
    36   32   35 2
    37   33   35 2
    38    1   36 1
    39    2   37 1
    40    3   38 1
    41   10   39 1
    42   10   40 1
    43   11   41 1
    44   11   42 1
    45   12   43 1
    46   12   44 1
    47   13   45 1
    48   13   46 1
    49   14   47 1
    50   14   48 1
    51   15   49 1
    52   16   50 1
    53   17   51 1
    54   18   52 1
    55   18   53 1
    56   18   54 1
    57   19   55 1
    58   19   56 1
    59   19   57 1
    60   20   58 1
    61   20   59 1
    62   21   60 1
    63   21   61 1
    64   22   62 1
    65   22   63 1
    66   23   64 1
    67   24   65 1
    68   26   66 1
    69   26   67 1
    70   27   68 1
    71   27   69 1
    72   28   70 1
    73   29   71 1
    74   34   72 1
@<TRIPOS>MOLECULE
1dwc_ligand_96
   72    74     0     0     0
SMALL
USER_CHARGES

mmff94s_NoEstat = 77.13
@<TRIPOS>ATOM
      1 C1          4.5626   -6.2396   -3.1257 C.ar      1 <0>        -0.1945
      2 C2          3.6098   -7.1989   -2.7894 C.ar      1 <0>        -0.0294
      3 C3          4.1569   -4.9818   -3.5618 C.ar      1 <0>        -0.0143
      4 C4          2.2424   -6.9031   -2.8839 C.ar      1 <0>        -0.1552
      5 C5          1.8233   -5.6419   -3.3522 C.ar      1 <0>         0.3076
      6 C6          2.7974   -4.6848   -3.6711 C.ar      1 <0>        -0.4908
      7 C7          0.5484   -0.8946    1.4535 C.2       1 <0>         0.5994
      8 C8          2.9466   -1.3973   -0.6457 C.2       1 <0>         0.6462
      9 C9          7.6931   -4.2818   -2.0990 C.cat     1 <0>         0.6305
     10 C10         1.2236   -7.9574   -2.5224 C.3       1 <0>        -0.0319
     11 C11         1.0071   -4.1523    1.0299 C.3       1 <0>        -0.0918
     12 C12         1.8830   -2.5004    2.7729 C.3       1 <0>        -0.0841
     13 C13         2.2320   -3.6460    0.2757 C.3       1 <0>         0.0870
     14 C14        -0.5345   -6.3513   -3.3071 C.3       1 <0>         0.2023
     15 C15         1.9200   -1.5343    1.5913 C.3       1 <0>         0.0778
     16 C16        -0.1411   -7.3305   -2.1962 C.3       1 <0>        -0.0746
     17 C17         1.0079   -3.7392    2.5107 C.3       1 <0>        -0.0681
     18 C18        -1.2052   -8.4095   -2.0149 C.3       1 <0>        -0.0944
     19 C19         1.4463   -4.8953    3.4115 C.3       1 <0>        -0.0918
     20 C20         5.7415   -1.0578   -1.6401 C.3       1 <0>        -0.1192
     21 C21         4.5564   -1.3488   -2.5679 C.3       1 <0>        -0.0916
     22 C22         6.4279   -2.3331   -1.1666 C.3       1 <0>         0.1883
     23 C23         3.4544   -2.1251   -1.8653 C.3       1 <0>         0.1952
     24 N1          0.4755   -5.3205   -3.4555 N.pl3     1 <0>        -0.7670
     25 N2          2.3654   -2.1840    0.3531 N.am      1 <0>        -0.4509
     26 N3          8.1964   -4.9967   -3.1809 N.pl3     1 <0>        -0.8477
     27 N4          7.9172   -4.7548   -0.8106 N.pl3     1 <0>        -0.8633
     28 N5          6.9676   -3.0994   -2.2805 N.pl3     1 <0>        -0.7419
     29 N6          2.2741   -2.2179   -2.7432 N.pl3     1 <0>        -0.8860
     30 O1         -0.0257   -0.2688    2.3322 O.2       1 <0>        -0.5199
     31 O2          3.0580   -0.1705   -0.5795 O.2       1 <0>        -0.6131
     32 O3          3.4786   -2.5500   -4.9955 O.2       1 <0>        -0.6576
     33 O4          1.0452   -3.1536   -4.7996 O.2       1 <0>        -0.6482
     34 O5          0.0400   -1.1141    0.2163 O.3       1 <0>        -0.6303
     35 S1          2.3700   -3.0669   -4.2159 S.o2      1 <0>         1.5193
     36 H1          5.6208   -6.4721   -3.0440 H         1 <0>         0.1426
     37 H2          3.9359   -8.1780   -2.4467 H         1 <0>         0.1398
     38 H3          4.8901   -4.2246   -3.8207 H         1 <0>         0.1599
     39 H4          1.1317   -8.6518   -3.3671 H         1 <0>         0.0574
     40 H5          1.5711   -8.5308   -1.6542 H         1 <0>         0.0629
     41 H6          0.1116   -3.7326    0.5525 H         1 <0>         0.0614
     42 H7          0.9264   -5.2409    0.9288 H         1 <0>         0.0593
     43 H8          2.9117   -2.8226    2.9853 H         1 <0>         0.0841
     44 H9          1.5267   -1.9929    3.6785 H         1 <0>         0.0679
     45 H10         3.1493   -4.0774    0.6933 H         1 <0>         0.0826
     46 H11         2.1726   -3.9558   -0.7722 H         1 <0>         0.0383
     47 H12        -0.6578   -6.8796   -4.2606 H         1 <0>         0.0556
     48 H13        -1.4944   -5.8780   -3.0722 H         1 <0>         0.0415
     49 H14         2.6095   -0.7128    1.8202 H         1 <0>         0.0851
     50 H15        -0.0578   -6.7761   -1.2516 H         1 <0>         0.0639
     51 H16        -0.0273   -3.5034    2.7887 H         1 <0>         0.0584
     52 H17        -2.1023   -7.9902   -1.5497 H         1 <0>         0.0401
     53 H18        -1.4866   -8.8384   -2.9813 H         1 <0>         0.0440
     54 H19        -0.8307   -9.2152   -1.3763 H         1 <0>         0.0459
     55 H20         0.5753   -5.4296    3.8024 H         1 <0>         0.0456
     56 H21         2.0638   -5.6051    2.8530 H         1 <0>         0.0366
     57 H22         2.0303   -4.5225    4.2583 H         1 <0>         0.0474
     58 H23         6.4686   -0.4251   -2.1633 H         1 <0>         0.0800
     59 H24         5.3954   -0.5006   -0.7619 H         1 <0>         0.0681
     60 H25         4.9119   -1.8947   -3.4517 H         1 <0>         0.0740
     61 H26         4.1396   -0.4017   -2.9334 H         1 <0>         0.0631
     62 H27         5.7338   -2.9738   -0.6133 H         1 <0>         0.0970
     63 H28         7.2615   -2.0842   -0.5022 H         1 <0>         0.0725
     64 H29         3.7703   -3.1244   -1.5692 H         1 <0>         0.0839
     65 H30         0.2230   -4.4307   -3.8677 H         1 <0>         0.4531
     66 H31         8.0557   -4.6904   -4.1399 H         1 <0>         0.4798
     67 H32         8.7224   -5.8561   -3.0401 H         1 <0>         0.4881
     68 H33         7.5634   -4.2571    0.0028 H         1 <0>         0.4801
     69 H34         8.4421   -5.6108   -0.6478 H         1 <0>         0.4806
     70 H35         6.8195   -2.7774   -3.2381 H         1 <0>         0.4689
     71 H36         1.3641   -2.1281   -2.2790 H         1 <0>         0.4505
     72 H37        -0.8473   -0.7100    0.1079 H         1 <0>         0.4443
@<TRIPOS>BOND
     1    1    2 ar
     2    1    3 ar
     3    2    4 ar
     4    3    6 ar
     5    4    5 ar
     6    4   10 1
     7    5    6 ar
     8    5   24 1
     9    6   35 1
    10    7   15 1
    11    7   30 2
    12    7   34 1
    13    8   23 1
    14    8   25 am
    15    8   31 2
    16    9   26 1
    17    9   27 1
    18    9   28 1
    19   10   16 1
    20   11   13 1
    21   11   17 1
    22   12   15 1
    23   12   17 1
    24   13   25 1
    25   14   16 1
    26   14   24 1
    27   15   25 1
    28   16   18 1
    29   17   19 1
    30   20   21 1
    31   20   22 1
    32   21   23 1
    33   22   28 1
    34   23   29 1
    35   29   35 1
    36   32   35 2
    37   33   35 2
    38    1   36 1
    39    2   37 1
    40    3   38 1
    41   10   39 1
    42   10   40 1
    43   11   41 1
    44   11   42 1
    45   12   43 1
    46   12   44 1
    47   13   45 1
    48   13   46 1
    49   14   47 1
    50   14   48 1
    51   15   49 1
    52   16   50 1
    53   17   51 1
    54   18   52 1
    55   18   53 1
    56   18   54 1
    57   19   55 1
    58   19   56 1
    59   19   57 1
    60   20   58 1
    61   20   59 1
    62   21   60 1
    63   21   61 1
    64   22   62 1
    65   22   63 1
    66   23   64 1
    67   24   65 1
    68   26   66 1
    69   26   67 1
    70   27   68 1
    71   27   69 1
    72   28   70 1
    73   29   71 1
    74   34   72 1
@<TRIPOS>MOLECULE
1dwc_ligand_97
   72    74     0     0     0
SMALL
USER_CHARGES

mmff94s_NoEstat = 77.14
@<TRIPOS>ATOM
      1 C1          6.5406    1.4245   -2.2182 C.ar      1 <0>        -0.1945
      2 C2          6.6985    1.8302   -0.8947 C.ar      1 <0>        -0.0294
      3 C3          6.3835    0.0742   -2.5155 C.ar      1 <0>        -0.0143
      4 C4          6.7040    0.8848    0.1410 C.ar      1 <0>        -0.1552
      5 C5          6.5167   -0.4809   -0.1490 C.ar      1 <0>         0.3076
      6 C6          6.3751   -0.8712   -1.4886 C.ar      1 <0>        -0.4908
      7 C7          1.3468    0.6177    1.3014 C.2       1 <0>         0.5994
      8 C8          2.9466   -1.3973   -0.6457 C.2       1 <0>         0.6462
      9 C9         -1.2208   -5.2227   -3.0846 C.cat     1 <0>         0.6305
     10 C10         6.8681    1.3449    1.5697 C.3       1 <0>        -0.0319
     11 C11         0.9458    1.5505   -1.8563 C.3       1 <0>        -0.0918
     12 C12        -0.4678    0.1037   -0.2936 C.3       1 <0>        -0.0841
     13 C13         1.6320    0.2101   -2.0964 C.3       1 <0>         0.0870
     14 C14         6.4788   -1.0425    2.2496 C.3       1 <0>         0.2023
     15 C15         0.8897   -0.3588    0.2303 C.3       1 <0>         0.0778
     16 C16         7.3211    0.2120    2.5051 C.3       1 <0>        -0.0746
     17 C17        -0.3875    1.4098   -1.1040 C.3       1 <0>        -0.0681
     18 C18         8.8220   -0.0713    2.3751 C.3       1 <0>        -0.0944
     19 C19        -1.5791    1.5133   -2.0576 C.3       1 <0>        -0.0918
     20 C20         2.0376   -4.1819   -1.4375 C.3       1 <0>        -0.1192
     21 C21         2.4114   -3.0756   -2.4306 C.3       1 <0>        -0.0916
     22 C22         1.0502   -5.1786   -2.0318 C.3       1 <0>         0.1883
     23 C23         3.4544   -2.1251   -1.8653 C.3       1 <0>         0.1952
     24 N1          6.5251   -1.4407    0.8554 N.pl3     1 <0>        -0.7670
     25 N2          1.8770   -0.5193   -0.8436 N.am      1 <0>        -0.4509
     26 N3         -2.3889   -4.5781   -3.4783 N.pl3     1 <0>        -0.8477
     27 N4         -1.0858   -6.5863   -3.3223 N.pl3     1 <0>        -0.8633
     28 N5         -0.1815   -4.5286   -2.4559 N.pl3     1 <0>        -0.7419
     29 N6          4.6097   -2.8934   -1.3678 N.pl3     1 <0>        -0.8860
     30 O1          0.7173    0.8974    2.3108 O.2       1 <0>        -0.5199
     31 O2          3.4814   -1.5970    0.4480 O.2       1 <0>        -0.6131
     32 O3          6.1698   -2.6265   -3.3996 O.2       1 <0>        -0.6576
     33 O4          7.1388   -3.3235   -1.1861 O.2       1 <0>        -0.6482
     34 O5          2.5550    1.1443    0.9849 O.3       1 <0>        -0.6303
     35 S1          6.1736   -2.5573   -1.9508 S.o2      1 <0>         1.5193
     36 H1          6.5435    2.1609   -3.0173 H         1 <0>         0.1426
     37 H2          6.8235    2.8872   -0.6719 H         1 <0>         0.1398
     38 H3          6.2656   -0.2543   -3.5434 H         1 <0>         0.1599
     39 H4          7.5861    2.1725    1.6211 H         1 <0>         0.0574
     40 H5          5.8975    1.7275    1.9104 H         1 <0>         0.0629
     41 H6          1.6183    2.1788   -1.2572 H         1 <0>         0.0614
     42 H7          0.8028    2.0758   -2.8079 H         1 <0>         0.0593
     43 H8         -0.8795   -0.6920   -0.9297 H         1 <0>         0.0841
     44 H9         -1.1784    0.2354    0.5325 H         1 <0>         0.0679
     45 H10         1.0116   -0.4343   -2.7302 H         1 <0>         0.0826
     46 H11         2.5790    0.3704   -2.6207 H         1 <0>         0.0383
     47 H12         6.8300   -1.8717    2.8739 H         1 <0>         0.0556
     48 H13         5.4356   -0.8502    2.5290 H         1 <0>         0.0415
     49 H14         0.7693   -1.3229    0.7388 H         1 <0>         0.0851
     50 H15         7.1566    0.5367    3.5400 H         1 <0>         0.0639
     51 H16        -0.4679    2.2580   -0.4122 H         1 <0>         0.0584
     52 H17         9.2504    0.4995    1.5459 H         1 <0>         0.0401
     53 H18         9.3470    0.2082    3.2934 H         1 <0>         0.0440
     54 H19         8.9975   -1.1349    2.1879 H         1 <0>         0.0459
     55 H20        -1.7509    2.5545   -2.3465 H         1 <0>         0.0456
     56 H21        -1.3974    0.9294   -2.9649 H         1 <0>         0.0366
     57 H22        -2.4876    1.1341   -1.5800 H         1 <0>         0.0474
     58 H23         2.9446   -4.7113   -1.1217 H         1 <0>         0.0800
     59 H24         1.5893   -3.7381   -0.5411 H         1 <0>         0.0681
     60 H25         1.5058   -2.5277   -2.7226 H         1 <0>         0.0740
     61 H26         2.8104   -3.5289   -3.3468 H         1 <0>         0.0631
     62 H27         0.7947   -5.9607   -1.3098 H         1 <0>         0.0970
     63 H28         1.4892   -5.6603   -2.9113 H         1 <0>         0.0725
     64 H29         3.7902   -1.3903   -2.5956 H         1 <0>         0.0839
     65 H30         6.3115   -2.3985    0.6051 H         1 <0>         0.4531
     66 H31        -2.5325   -3.5838   -3.3234 H         1 <0>         0.4798
     67 H32        -3.1402   -5.0906   -3.9344 H         1 <0>         0.4881
     68 H33        -0.2453   -7.0887   -3.0475 H         1 <0>         0.4801
     69 H34        -1.8241   -7.1168   -3.7785 H         1 <0>         0.4806
     70 H35        -0.3098   -3.5285   -2.2950 H         1 <0>         0.4689
     71 H36         4.5044   -3.3037   -0.4338 H         1 <0>         0.4505
     72 H37         2.8671    1.7795    1.6642 H         1 <0>         0.4443
@<TRIPOS>BOND
     1    1    2 ar
     2    1    3 ar
     3    2    4 ar
     4    3    6 ar
     5    4    5 ar
     6    4   10 1
     7    5    6 ar
     8    5   24 1
     9    6   35 1
    10    7   15 1
    11    7   30 2
    12    7   34 1
    13    8   23 1
    14    8   25 am
    15    8   31 2
    16    9   26 1
    17    9   27 1
    18    9   28 1
    19   10   16 1
    20   11   13 1
    21   11   17 1
    22   12   15 1
    23   12   17 1
    24   13   25 1
    25   14   16 1
    26   14   24 1
    27   15   25 1
    28   16   18 1
    29   17   19 1
    30   20   21 1
    31   20   22 1
    32   21   23 1
    33   22   28 1
    34   23   29 1
    35   29   35 1
    36   32   35 2
    37   33   35 2
    38    1   36 1
    39    2   37 1
    40    3   38 1
    41   10   39 1
    42   10   40 1
    43   11   41 1
    44   11   42 1
    45   12   43 1
    46   12   44 1
    47   13   45 1
    48   13   46 1
    49   14   47 1
    50   14   48 1
    51   15   49 1
    52   16   50 1
    53   17   51 1
    54   18   52 1
    55   18   53 1
    56   18   54 1
    57   19   55 1
    58   19   56 1
    59   19   57 1
    60   20   58 1
    61   20   59 1
    62   21   60 1
    63   21   61 1
    64   22   62 1
    65   22   63 1
    66   23   64 1
    67   24   65 1
    68   26   66 1
    69   26   67 1
    70   27   68 1
    71   27   69 1
    72   28   70 1
    73   29   71 1
    74   34   72 1
@<TRIPOS>MOLECULE
1dwc_ligand_98
   72    74     0     0     0
SMALL
USER_CHARGES

mmff94s_NoEstat = 77.16
@<TRIPOS>ATOM
      1 C1         -0.1321   -5.1933    0.1573 C.ar      1 <0>        -0.1945
      2 C2         -1.2967   -4.4370    0.2715 C.ar      1 <0>        -0.0294
      3 C3          0.7451   -4.9615   -0.8981 C.ar      1 <0>        -0.0143
      4 C4         -1.5890   -3.4395   -0.6696 C.ar      1 <0>        -0.1552
      5 C5         -0.7207   -3.2182   -1.7571 C.ar      1 <0>         0.3076
      6 C6          0.4539   -3.9792   -1.8460 C.ar      1 <0>        -0.4908
      7 C7          1.8102   -1.5505    2.3702 C.2       1 <0>         0.5994
      8 C8          2.9466   -1.3973   -0.6457 C.2       1 <0>         0.6462
      9 C9          8.3972   -2.1425   -3.3525 C.cat     1 <0>         0.6305
     10 C10        -2.8594   -2.6346   -0.5344 C.3       1 <0>        -0.0319
     11 C11         4.4920   -3.4807    2.0801 C.3       1 <0>        -0.0918
     12 C12         4.1798   -1.0721    2.8769 C.3       1 <0>        -0.0841
     13 C13         4.5658   -2.7774    0.7291 C.3       1 <0>         0.0870
     14 C14        -2.2741   -1.5731   -2.7292 C.3       1 <0>         0.2023
     15 C15         3.1125   -1.0286    1.7861 C.3       1 <0>         0.0778
     16 C16        -2.7671   -1.3070   -1.3031 C.3       1 <0>        -0.0746
     17 C17         4.5869   -2.5050    3.2643 C.3       1 <0>        -0.0681
     18 C18        -4.1147   -0.5906   -1.3139 C.3       1 <0>        -0.0944
     19 C19         5.9882   -2.5079    3.8779 C.3       1 <0>        -0.0918
     20 C20         5.1203   -2.1076   -3.7746 C.3       1 <0>        -0.1192
     21 C21         4.5564   -1.3488   -2.5679 C.3       1 <0>        -0.0916
     22 C22         6.2766   -1.3646   -4.4322 C.3       1 <0>         0.1883
     23 C23         3.4544   -2.1251   -1.8653 C.3       1 <0>         0.1952
     24 N1         -0.9842   -2.2364   -2.7044 N.pl3     1 <0>        -0.7670
     25 N2          3.5192   -1.7560    0.5781 N.am      1 <0>        -0.4509
     26 N3          9.4536   -1.9437   -2.4696 N.pl3     1 <0>        -0.8477
     27 N4          8.3419   -3.3208   -4.0890 N.pl3     1 <0>        -0.8633
     28 N5          7.3917   -1.1832   -3.5140 N.pl3     1 <0>        -0.7419
     29 N6          2.2741   -2.2179   -2.7432 N.pl3     1 <0>        -0.8860
     30 O1          1.2492   -1.0925    3.3546 O.2       1 <0>        -0.5199
     31 O2          2.0685   -0.5400   -0.7710 O.2       1 <0>        -0.6131
     32 O3          2.6529   -4.7521   -3.0046 O.2       1 <0>        -0.6576
     33 O4          0.8695   -3.6258   -4.3741 O.2       1 <0>        -0.6482
     34 O5          1.3501   -2.6026    1.6500 O.3       1 <0>        -0.6303
     35 S1          1.6226   -3.7401   -3.1398 S.o2      1 <0>         1.5193
     36 H1          0.0926   -5.9603    0.8933 H         1 <0>         0.1426
     37 H2         -1.9748   -4.6230    1.1010 H         1 <0>         0.1398
     38 H3          1.6583   -5.5402   -0.9937 H         1 <0>         0.1599
     39 H4         -3.6924   -3.2386   -0.9162 H         1 <0>         0.0574
     40 H5         -3.0570   -2.4229    0.5236 H         1 <0>         0.0629
     41 H6          3.5311   -4.0088    2.1410 H         1 <0>         0.0614
     42 H7          5.2694   -4.2509    2.1463 H         1 <0>         0.0593
     43 H8          5.0641   -0.5305    2.5137 H         1 <0>         0.0841
     44 H9          3.8399   -0.5392    3.7741 H         1 <0>         0.0679
     45 H10         5.5312   -2.2723    0.6079 H         1 <0>         0.0826
     46 H11         4.4795   -3.5150   -0.0747 H         1 <0>         0.0383
     47 H12        -2.9931   -2.1963   -3.2755 H         1 <0>         0.0556
     48 H13        -2.1791   -0.6302   -3.2791 H         1 <0>         0.0415
     49 H14         2.9188    0.0160    1.5141 H         1 <0>         0.0851
     50 H15        -2.0423   -0.6556   -0.7961 H         1 <0>         0.0639
     51 H16         3.9047   -2.8651    4.0450 H         1 <0>         0.0584
     52 H17        -3.9957    0.4471   -1.6395 H         1 <0>         0.0401
     53 H18        -4.8094   -1.0885   -1.9971 H         1 <0>         0.0440
     54 H19        -4.5572   -0.5891   -0.3133 H         1 <0>         0.0459
     55 H20         6.0310   -3.1862    4.7353 H         1 <0>         0.0456
     56 H21         6.7293   -2.8350    3.1425 H         1 <0>         0.0366
     57 H22         6.2606   -1.5045    4.2187 H         1 <0>         0.0474
     58 H23         5.4592   -3.1007   -3.4560 H         1 <0>         0.0800
     59 H24         4.3307   -2.2553   -4.5204 H         1 <0>         0.0681
     60 H25         4.1906   -0.3664   -2.8945 H         1 <0>         0.0740
     61 H26         5.3633   -1.1575   -1.8491 H         1 <0>         0.0631
     62 H27         5.9616   -0.3787   -4.7887 H         1 <0>         0.0970
     63 H28         6.6457   -1.9332   -5.2916 H         1 <0>         0.0725
     64 H29         3.7703   -3.1244   -1.5692 H         1 <0>         0.0839
     65 H30        -0.3716   -2.1656   -3.5075 H         1 <0>         0.4531
     66 H31         9.5364   -1.0976   -1.9123 H         1 <0>         0.4798
     67 H32        10.1811   -2.6463   -2.3587 H         1 <0>         0.4881
     68 H33         7.5837   -3.4984   -4.7434 H         1 <0>         0.4801
     69 H34         9.0579   -4.0367   -3.9917 H         1 <0>         0.4806
     70 H35         7.4597   -0.3285   -2.9594 H         1 <0>         0.4689
     71 H36         1.6613   -1.3957   -2.7560 H         1 <0>         0.4505
     72 H37         0.5099   -2.9556    2.0129 H         1 <0>         0.4443
@<TRIPOS>BOND
     1    1    2 ar
     2    1    3 ar
     3    2    4 ar
     4    3    6 ar
     5    4    5 ar
     6    4   10 1
     7    5    6 ar
     8    5   24 1
     9    6   35 1
    10    7   15 1
    11    7   30 2
    12    7   34 1
    13    8   23 1
    14    8   25 am
    15    8   31 2
    16    9   26 1
    17    9   27 1
    18    9   28 1
    19   10   16 1
    20   11   13 1
    21   11   17 1
    22   12   15 1
    23   12   17 1
    24   13   25 1
    25   14   16 1
    26   14   24 1
    27   15   25 1
    28   16   18 1
    29   17   19 1
    30   20   21 1
    31   20   22 1
    32   21   23 1
    33   22   28 1
    34   23   29 1
    35   29   35 1
    36   32   35 2
    37   33   35 2
    38    1   36 1
    39    2   37 1
    40    3   38 1
    41   10   39 1
    42   10   40 1
    43   11   41 1
    44   11   42 1
    45   12   43 1
    46   12   44 1
    47   13   45 1
    48   13   46 1
    49   14   47 1
    50   14   48 1
    51   15   49 1
    52   16   50 1
    53   17   51 1
    54   18   52 1
    55   18   53 1
    56   18   54 1
    57   19   55 1
    58   19   56 1
    59   19   57 1
    60   20   58 1
    61   20   59 1
    62   21   60 1
    63   21   61 1
    64   22   62 1
    65   22   63 1
    66   23   64 1
    67   24   65 1
    68   26   66 1
    69   26   67 1
    70   27   68 1
    71   27   69 1
    72   28   70 1
    73   29   71 1
    74   34   72 1
@<TRIPOS>MOLECULE
1dwc_ligand_99
   72    74     0     0     0
SMALL
USER_CHARGES

mmff94s_NoEstat = 77.21
@<TRIPOS>ATOM
      1 C1          4.8644   -5.7586   -5.2162 C.ar      1 <0>        -0.1945
      2 C2          4.8163   -6.9783   -4.5445 C.ar      1 <0>        -0.0294
      3 C3          5.2154   -4.6012   -4.5279 C.ar      1 <0>        -0.0143
      4 C4          5.1159   -7.0467   -3.1762 C.ar      1 <0>        -0.1552
      5 C5          5.4999   -5.8846   -2.4788 C.ar      1 <0>         0.3076
      6 C6          5.5274   -4.6639   -3.1687 C.ar      1 <0>        -0.4908
      7 C7          3.6135    0.1593    2.1008 C.2       1 <0>         0.5994
      8 C8          2.9466   -1.3973   -0.6457 C.2       1 <0>         0.6462
      9 C9         -1.3171   -5.2569   -2.4651 C.cat     1 <0>         0.6305
     10 C10         5.0662   -8.3791   -2.4677 C.3       1 <0>        -0.0319
     11 C11         5.5437    1.3083   -0.3397 C.3       1 <0>        -0.0918
     12 C12         3.3133    2.1108    0.6168 C.3       1 <0>        -0.0841
     13 C13         4.6073    0.4410   -1.1741 C.3       1 <0>         0.0870
     14 C14         5.9569   -7.1911   -0.4406 C.3       1 <0>         0.2023
     15 C15         3.0358    0.6175    0.7719 C.3       1 <0>         0.0778
     16 C16         4.9491   -8.2311   -0.9420 C.3       1 <0>        -0.0746
     17 C17         4.8054    2.4280    0.4117 C.3       1 <0>        -0.0681
     18 C18         3.5177   -7.8948   -0.5083 C.3       1 <0>        -0.0944
     19 C19         4.9662    3.7744   -0.2964 C.3       1 <0>        -0.0918
     20 C20         1.1084   -2.3549   -2.7950 C.3       1 <0>        -0.1192
     21 C21         2.4114   -3.0756   -2.4306 C.3       1 <0>        -0.0916
     22 C22         0.0368   -3.3189   -3.2890 C.3       1 <0>         0.1883
     23 C23         3.4544   -2.1251   -1.8653 C.3       1 <0>         0.1952
     24 N1          5.7951   -5.9205   -1.1218 N.pl3     1 <0>        -0.7670
     25 N2          3.5421   -0.1648   -0.3619 N.am      1 <0>        -0.4509
     26 N3         -1.6338   -6.1837   -1.4774 N.pl3     1 <0>        -0.8477
     27 N4         -2.0118   -5.2856   -3.6695 N.pl3     1 <0>        -0.8633
     28 N5         -0.3162   -4.2987   -2.2718 N.pl3     1 <0>        -0.7419
     29 N6          4.6097   -2.8934   -1.3678 N.pl3     1 <0>        -0.8860
     30 O1          3.3259    0.6306    3.1909 O.2       1 <0>        -0.5199
     31 O2          2.0528   -1.9046    0.0367 O.2       1 <0>        -0.6131
     32 O3          7.1283   -3.4000   -1.5517 O.2       1 <0>        -0.6576
     33 O4          5.9896   -2.1297   -3.3994 O.2       1 <0>        -0.6482
     34 O5          4.5002   -0.8490    1.9151 O.3       1 <0>        -0.6303
     35 S1          5.9585   -3.1544   -2.3734 S.o2      1 <0>         1.5193
     36 H1          4.6251   -5.7105   -6.2751 H         1 <0>         0.1426
     37 H2          4.5383   -7.8771   -5.0897 H         1 <0>         0.1398
     38 H3          5.2504   -3.6444   -5.0393 H         1 <0>         0.1599
     39 H4          4.2273   -8.9773   -2.8439 H         1 <0>         0.0574
     40 H5          5.9911   -8.9191   -2.7076 H         1 <0>         0.0629
     41 H6          6.0425    0.6652    0.3976 H         1 <0>         0.0614
     42 H7          6.3377    1.7214   -0.9727 H         1 <0>         0.0593
     43 H8          2.7432    2.4779   -0.2478 H         1 <0>         0.0841
     44 H9          2.9432    2.6669    1.4876 H         1 <0>         0.0679
     45 H10         4.1201    1.0372   -1.9545 H         1 <0>         0.0826
     46 H11         5.1818   -0.3450   -1.6740 H         1 <0>         0.0383
     47 H12         5.8438   -7.0394    0.6386 H         1 <0>         0.0556
     48 H13         6.9779   -7.5557   -0.6081 H         1 <0>         0.0415
     49 H14         1.9534    0.4590    0.8478 H         1 <0>         0.0851
     50 H15         5.1909   -9.1986   -0.4850 H         1 <0>         0.0639
     51 H16         5.2803    2.5350    1.3953 H         1 <0>         0.0584
     52 H17         2.8884   -7.6961   -1.3810 H         1 <0>         0.0401
     53 H18         3.0795   -8.7273    0.0501 H         1 <0>         0.0440
     54 H19         3.5086   -7.0076    0.1320 H         1 <0>         0.0459
     55 H20         5.9624    4.1882   -0.1137 H         1 <0>         0.0456
     56 H21         4.8337    3.6592   -1.3763 H         1 <0>         0.0366
     57 H22         4.2237    4.4910    0.0673 H         1 <0>         0.0474
     58 H23         0.7341   -1.8112   -1.9193 H         1 <0>         0.0800
     59 H24         1.3022   -1.6154   -3.5806 H         1 <0>         0.0681
     60 H25         2.8001   -3.5947   -3.3165 H         1 <0>         0.0740
     61 H26         2.2014   -3.8505   -1.6824 H         1 <0>         0.0631
     62 H27         0.3698   -3.8564   -4.1826 H         1 <0>         0.0970
     63 H28        -0.8729   -2.7667   -3.5456 H         1 <0>         0.0725
     64 H29         3.7902   -1.3903   -2.5956 H         1 <0>         0.0839
     65 H30         6.1384   -5.0748   -0.6832 H         1 <0>         0.4531
     66 H31        -1.1515   -6.2017   -0.5827 H         1 <0>         0.4798
     67 H32        -2.3627   -6.8776   -1.6264 H         1 <0>         0.4881
     68 H33        -1.8058   -4.6228   -4.4129 H         1 <0>         0.4801
     69 H34        -2.7453   -5.9699   -3.8381 H         1 <0>         0.4806
     70 H35         0.1761   -4.3026   -1.3773 H         1 <0>         0.4689
     71 H36         4.7395   -2.8961   -0.3505 H         1 <0>         0.4505
     72 H37         4.8863   -1.1580    2.7624 H         1 <0>         0.4443
@<TRIPOS>BOND
     1    1    2 ar
     2    1    3 ar
     3    2    4 ar
     4    3    6 ar
     5    4    5 ar
     6    4   10 1
     7    5    6 ar
     8    5   24 1
     9    6   35 1
    10    7   15 1
    11    7   30 2
    12    7   34 1
    13    8   23 1
    14    8   25 am
    15    8   31 2
    16    9   26 1
    17    9   27 1
    18    9   28 1
    19   10   16 1
    20   11   13 1
    21   11   17 1
    22   12   15 1
    23   12   17 1
    24   13   25 1
    25   14   16 1
    26   14   24 1
    27   15   25 1
    28   16   18 1
    29   17   19 1
    30   20   21 1
    31   20   22 1
    32   21   23 1
    33   22   28 1
    34   23   29 1
    35   29   35 1
    36   32   35 2
    37   33   35 2
    38    1   36 1
    39    2   37 1
    40    3   38 1
    41   10   39 1
    42   10   40 1
    43   11   41 1
    44   11   42 1
    45   12   43 1
    46   12   44 1
    47   13   45 1
    48   13   46 1
    49   14   47 1
    50   14   48 1
    51   15   49 1
    52   16   50 1
    53   17   51 1
    54   18   52 1
    55   18   53 1
    56   18   54 1
    57   19   55 1
    58   19   56 1
    59   19   57 1
    60   20   58 1
    61   20   59 1
    62   21   60 1
    63   21   61 1
    64   22   62 1
    65   22   63 1
    66   23   64 1
    67   24   65 1
    68   26   66 1
    69   26   67 1
    70   27   68 1
    71   27   69 1
    72   28   70 1
    73   29   71 1
    74   34   72 1
@<TRIPOS>MOLECULE
1dwc_ligand_100
   72    74     0     0     0
SMALL
USER_CHARGES

mmff94s_NoEstat = 77.21
@<TRIPOS>ATOM
      1 C1          2.5116   -3.9380   -0.5557 C.ar      1 <0>        -0.1945
      2 C2          3.7426   -3.3274   -0.3259 C.ar      1 <0>        -0.0294
      3 C3          1.7913   -4.4690    0.5101 C.ar      1 <0>        -0.0143
      4 C4          4.2632   -3.2477    0.9738 C.ar      1 <0>        -0.1552
      5 C5          3.5271   -3.7571    2.0614 C.ar      1 <0>         0.3076
      6 C6          2.2973   -4.3819    1.8081 C.ar      1 <0>        -0.4908
      7 C7          1.9642    1.4662    1.8632 C.2       1 <0>         0.5994
      8 C8          0.8654   -1.4427    3.2413 C.2       1 <0>         0.6462
      9 C9         -5.6874   -4.6342    5.1589 C.cat     1 <0>         0.6305
     10 C10         5.5952   -2.5748    1.2036 C.3       1 <0>        -0.0319
     11 C11        -1.6490    0.4795    1.3708 C.3       1 <0>        -0.0918
     12 C12        -0.2722    2.0957    2.6970 C.3       1 <0>        -0.0841
     13 C13        -0.4988   -0.5187    1.4084 C.3       1 <0>         0.0870
     14 C14         5.1895   -2.8951    3.6625 C.3       1 <0>         0.2023
     15 C15         0.8473    1.0575    2.8095 C.3       1 <0>         0.0778
     16 C16         6.2338   -2.9744    2.5437 C.3       1 <0>        -0.0746
     17 C17        -1.1290    1.9179    1.4364 C.3       1 <0>        -0.0681
     18 C18         6.8920   -4.3571    2.4737 C.3       1 <0>        -0.0944
     19 C19        -2.2862    2.9148    1.4217 C.3       1 <0>        -0.0918
     20 C20        -2.2331   -3.6727    3.9110 C.3       1 <0>        -0.1192
     21 C21        -1.3133   -2.4479    3.9716 C.3       1 <0>        -0.0916
     22 C22        -3.5726   -3.4201    4.5920 C.3       1 <0>         0.1883
     23 C23        -0.0078   -2.6730    3.2260 C.3       1 <0>         0.1952
     24 N1          4.0208   -3.6991    3.3587 N.pl3     1 <0>        -0.7670
     25 N2          0.3794   -0.3174    2.5658 N.am      1 <0>        -0.4509
     26 N3         -6.4864   -5.7715    5.1030 N.pl3     1 <0>        -0.8477
     27 N4         -6.1529   -3.5113    5.8344 N.pl3     1 <0>        -0.8633
     28 N5         -4.4280   -4.5974    4.5508 N.pl3     1 <0>        -0.7419
     29 N6          0.7961   -3.6905    3.9267 N.pl3     1 <0>        -0.8860
     30 O1          2.1850    2.6087    1.4900 O.2       1 <0>        -0.5199
     31 O2          1.9492   -1.4826    3.8301 O.2       1 <0>        -0.6131
     32 O3          0.1838   -5.7392    2.4909 O.2       1 <0>        -0.6576
     33 O4          2.2286   -5.8263    3.9523 O.2       1 <0>        -0.6482
     34 O5          2.6882    0.3854    1.4821 O.3       1 <0>        -0.6303
     35 S1          1.3247   -5.0804    3.0977 S.o2      1 <0>         1.5193
     36 H1          2.1160   -4.0026   -1.5657 H         1 <0>         0.1426
     37 H2          4.2999   -2.9178   -1.1651 H         1 <0>         0.1398
     38 H3          0.8339   -4.9524    0.3425 H         1 <0>         0.1599
     39 H4          6.2849   -2.8099    0.3837 H         1 <0>         0.0574
     40 H5          5.4270   -1.4903    1.1935 H         1 <0>         0.0629
     41 H6         -2.2327    0.3316    0.4545 H         1 <0>         0.0614
     42 H7         -2.3231    0.2907    2.2162 H         1 <0>         0.0593
     43 H8         -0.9212    2.0009    3.5784 H         1 <0>         0.0841
     44 H9          0.1416    3.1118    2.7215 H         1 <0>         0.0679
     45 H10        -0.9021   -1.5366    1.4052 H         1 <0>         0.0826
     46 H11         0.1232   -0.4178    0.5108 H         1 <0>         0.0383
     47 H12         5.6214   -3.2300    4.6122 H         1 <0>         0.0556
     48 H13         4.8765   -1.8531    3.8022 H         1 <0>         0.0415
     49 H14         1.2785    1.1236    3.8134 H         1 <0>         0.0851
     50 H15         7.0369   -2.2610    2.7660 H         1 <0>         0.0639
     51 H16        -0.5120    2.1147    0.5510 H         1 <0>         0.0584
     52 H17         6.6629   -4.8441    1.5211 H         1 <0>         0.0401
     53 H18         7.9790   -4.2705    2.5637 H         1 <0>         0.0440
     54 H19         6.5291   -4.9970    3.2836 H         1 <0>         0.0459
     55 H20        -2.0602    3.7755    2.0582 H         1 <0>         0.0456
     56 H21        -2.4693    3.2764    0.4054 H         1 <0>         0.0366
     57 H22        -3.2029    2.4449    1.7906 H         1 <0>         0.0474
     58 H23        -2.4032   -3.9506    2.8639 H         1 <0>         0.0800
     59 H24        -1.7473   -4.5245    4.4007 H         1 <0>         0.0681
     60 H25        -1.1204   -2.1894    5.0211 H         1 <0>         0.0740
     61 H26        -1.8263   -1.5854    3.5275 H         1 <0>         0.0631
     62 H27        -4.1071   -2.5906    4.1183 H         1 <0>         0.0970
     63 H28        -3.4143   -3.1637    5.6444 H         1 <0>         0.0725
     64 H29        -0.1638   -2.9774    2.1921 H         1 <0>         0.0839
     65 H30         3.4221   -4.0102    4.1139 H         1 <0>         0.4531
     66 H31        -6.1885   -6.6144    4.6191 H         1 <0>         0.4798
     67 H32        -7.4014   -5.7896    5.5474 H         1 <0>         0.4881
     68 H33        -5.5947   -2.6632    5.8946 H         1 <0>         0.4801
     69 H34        -7.0638   -3.5091    6.2870 H         1 <0>         0.4806
     70 H35        -4.1136   -5.4373    4.0624 H         1 <0>         0.4689
     71 H36         1.3354   -3.3564    4.7325 H         1 <0>         0.4505
     72 H37         3.4140    0.6285    0.8686 H         1 <0>         0.4443
@<TRIPOS>BOND
     1    1    2 ar
     2    1    3 ar
     3    2    4 ar
     4    3    6 ar
     5    4    5 ar
     6    4   10 1
     7    5    6 ar
     8    5   24 1
     9    6   35 1
    10    7   15 1
    11    7   30 2
    12    7   34 1
    13    8   23 1
    14    8   25 am
    15    8   31 2
    16    9   26 1
    17    9   27 1
    18    9   28 1
    19   10   16 1
    20   11   13 1
    21   11   17 1
    22   12   15 1
    23   12   17 1
    24   13   25 1
    25   14   16 1
    26   14   24 1
    27   15   25 1
    28   16   18 1
    29   17   19 1
    30   20   21 1
    31   20   22 1
    32   21   23 1
    33   22   28 1
    34   23   29 1
    35   29   35 1
    36   32   35 2
    37   33   35 2
    38    1   36 1
    39    2   37 1
    40    3   38 1
    41   10   39 1
    42   10   40 1
    43   11   41 1
    44   11   42 1
    45   12   43 1
    46   12   44 1
    47   13   45 1
    48   13   46 1
    49   14   47 1
    50   14   48 1
    51   15   49 1
    52   16   50 1
    53   17   51 1
    54   18   52 1
    55   18   53 1
    56   18   54 1
    57   19   55 1
    58   19   56 1
    59   19   57 1
    60   20   58 1
    61   20   59 1
    62   21   60 1
    63   21   61 1
    64   22   62 1
    65   22   63 1
    66   23   64 1
    67   24   65 1
    68   26   66 1
    69   26   67 1
    70   27   68 1
    71   27   69 1
    72   28   70 1
    73   29   71 1
    74   34   72 1
@<TRIPOS>MOLECULE
1dwc_ligand_101
   72    74     0     0     0
SMALL
USER_CHARGES

mmff94s_NoEstat = 77.29
@<TRIPOS>ATOM
      1 C1          4.7857   -3.3854   -6.6747 C.ar      1 <0>        -0.1945
      2 C2          4.2835   -2.4050   -7.5279 C.ar      1 <0>        -0.0294
      3 C3          4.0861   -3.7255   -5.5206 C.ar      1 <0>        -0.0143
      4 C4          3.0736   -1.7606   -7.2327 C.ar      1 <0>        -0.1552
      5 C5          2.3740   -2.0785   -6.0516 C.ar      1 <0>         0.3076
      6 C6          2.8878   -3.0788   -5.2136 C.ar      1 <0>        -0.4908
      7 C7          0.5484   -0.8946    1.4535 C.2       1 <0>         0.5994
      8 C8          2.9466   -1.3973   -0.6457 C.2       1 <0>         0.6462
      9 C9          8.2869   -3.0539    0.3474 C.cat     1 <0>         0.6305
     10 C10         2.5481   -0.6954   -8.1649 C.3       1 <0>        -0.0319
     11 C11         1.0071   -4.1523    1.0299 C.3       1 <0>        -0.0918
     12 C12         1.8830   -2.5004    2.7729 C.3       1 <0>        -0.0841
     13 C13         2.2320   -3.6460    0.2757 C.3       1 <0>         0.0870
     14 C14         0.7263   -0.3013   -6.4881 C.3       1 <0>         0.2023
     15 C15         1.9200   -1.5343    1.5913 C.3       1 <0>         0.0778
     16 C16         1.0380   -0.4809   -7.9775 C.3       1 <0>        -0.0746
     17 C17         1.0079   -3.7392    2.5107 C.3       1 <0>        -0.0681
     18 C18         0.5551    0.7196   -8.7869 C.3       1 <0>        -0.0944
     19 C19         1.4463   -4.8953    3.4115 C.3       1 <0>        -0.0918
     20 C20         5.7415   -1.0578   -1.6401 C.3       1 <0>        -0.1192
     21 C21         4.5564   -1.3488   -2.5679 C.3       1 <0>        -0.0916
     22 C22         6.4279   -2.3331   -1.1666 C.3       1 <0>         0.1883
     23 C23         3.4544   -2.1251   -1.8653 C.3       1 <0>         0.1952
     24 N1          1.1726   -1.4571   -5.7336 N.pl3     1 <0>        -0.7670
     25 N2          2.3654   -2.1840    0.3531 N.am      1 <0>        -0.4509
     26 N3          9.3421   -2.7528    1.2022 N.pl3     1 <0>        -0.8477
     27 N4          7.9744   -4.3862    0.0994 N.pl3     1 <0>        -0.8633
     28 N5          7.5354   -2.0461   -0.2663 N.pl3     1 <0>        -0.7419
     29 N6          2.2741   -2.2179   -2.7432 N.pl3     1 <0>        -0.8860
     30 O1         -0.0257   -0.2688    2.3322 O.2       1 <0>        -0.5199
     31 O2          3.0580   -0.1705   -0.5795 O.2       1 <0>        -0.6131
     32 O3          0.6499   -3.7277   -4.0534 O.2       1 <0>        -0.6576
     33 O4          2.8074   -4.6931   -3.1946 O.2       1 <0>        -0.6482
     34 O5          0.0400   -1.1141    0.2163 O.3       1 <0>        -0.6303
     35 S1          2.0591   -3.5786   -3.7438 S.o2      1 <0>         1.5193
     36 H1          5.7203   -3.8862   -6.9120 H         1 <0>         0.1426
     37 H2          4.8354   -2.1479   -8.4289 H         1 <0>         0.1398
     38 H3          4.4644   -4.4919   -4.8517 H         1 <0>         0.1599
     39 H4          3.0928    0.2363   -7.9655 H         1 <0>         0.0574
     40 H5          2.7429   -0.9806   -9.2061 H         1 <0>         0.0629
     41 H6          0.1116   -3.7326    0.5525 H         1 <0>         0.0614
     42 H7          0.9264   -5.2409    0.9288 H         1 <0>         0.0593
     43 H8          2.9117   -2.8226    2.9853 H         1 <0>         0.0841
     44 H9          1.5267   -1.9929    3.6785 H         1 <0>         0.0679
     45 H10         3.1493   -4.0774    0.6933 H         1 <0>         0.0826
     46 H11         2.1726   -3.9558   -0.7722 H         1 <0>         0.0383
     47 H12         1.2164    0.5993   -6.0977 H         1 <0>         0.0556
     48 H13        -0.3518   -0.1738   -6.3395 H         1 <0>         0.0415
     49 H14         2.6095   -0.7128    1.8202 H         1 <0>         0.0851
     50 H15         0.5073   -1.3704   -8.3432 H         1 <0>         0.0639
     51 H16        -0.0273   -3.5034    2.7887 H         1 <0>         0.0584
     52 H17        -0.5372    0.7259   -8.8506 H         1 <0>         0.0401
     53 H18         0.8784    1.6541   -8.3188 H         1 <0>         0.0440
     54 H19         0.9591    0.6854   -9.8032 H         1 <0>         0.0459
     55 H20         0.5753   -5.4296    3.8024 H         1 <0>         0.0456
     56 H21         2.0638   -5.6051    2.8530 H         1 <0>         0.0366
     57 H22         2.0303   -4.5225    4.2583 H         1 <0>         0.0474
     58 H23         6.4686   -0.4251   -2.1633 H         1 <0>         0.0800
     59 H24         5.3954   -0.5006   -0.7619 H         1 <0>         0.0681
     60 H25         4.9119   -1.8947   -3.4517 H         1 <0>         0.0740
     61 H26         4.1396   -0.4017   -2.9334 H         1 <0>         0.0631
     62 H27         6.8136   -2.9120   -2.0118 H         1 <0>         0.0970
     63 H28         5.7150   -2.9614   -0.6232 H         1 <0>         0.0725
     64 H29         3.7703   -3.1244   -1.5692 H         1 <0>         0.0839
     65 H30         0.7458   -1.6637   -4.8389 H         1 <0>         0.4531
     66 H31         9.6078   -1.7941    1.4112 H         1 <0>         0.4798
     67 H32         9.8840   -3.4919    1.6440 H         1 <0>         0.4881
     68 H33         7.2094   -4.6418   -0.5202 H         1 <0>         0.4801
     69 H34         8.5024   -5.1402    0.5323 H         1 <0>         0.4806
     70 H35         7.7887   -1.0776   -0.0648 H         1 <0>         0.4689
     71 H36         1.4502   -1.6870   -2.4414 H         1 <0>         0.4505
     72 H37        -0.8473   -0.7100    0.1079 H         1 <0>         0.4443
@<TRIPOS>BOND
     1    1    2 ar
     2    1    3 ar
     3    2    4 ar
     4    3    6 ar
     5    4    5 ar
     6    4   10 1
     7    5    6 ar
     8    5   24 1
     9    6   35 1
    10    7   15 1
    11    7   30 2
    12    7   34 1
    13    8   23 1
    14    8   25 am
    15    8   31 2
    16    9   26 1
    17    9   27 1
    18    9   28 1
    19   10   16 1
    20   11   13 1
    21   11   17 1
    22   12   15 1
    23   12   17 1
    24   13   25 1
    25   14   16 1
    26   14   24 1
    27   15   25 1
    28   16   18 1
    29   17   19 1
    30   20   21 1
    31   20   22 1
    32   21   23 1
    33   22   28 1
    34   23   29 1
    35   29   35 1
    36   32   35 2
    37   33   35 2
    38    1   36 1
    39    2   37 1
    40    3   38 1
    41   10   39 1
    42   10   40 1
    43   11   41 1
    44   11   42 1
    45   12   43 1
    46   12   44 1
    47   13   45 1
    48   13   46 1
    49   14   47 1
    50   14   48 1
    51   15   49 1
    52   16   50 1
    53   17   51 1
    54   18   52 1
    55   18   53 1
    56   18   54 1
    57   19   55 1
    58   19   56 1
    59   19   57 1
    60   20   58 1
    61   20   59 1
    62   21   60 1
    63   21   61 1
    64   22   62 1
    65   22   63 1
    66   23   64 1
    67   24   65 1
    68   26   66 1
    69   26   67 1
    70   27   68 1
    71   27   69 1
    72   28   70 1
    73   29   71 1
    74   34   72 1
@<TRIPOS>MOLECULE
1dwc_ligand_102
   72    74     0     0     0
SMALL
USER_CHARGES

mmff94s_NoEstat = 77.30
@<TRIPOS>ATOM
      1 C1          0.3205    0.2218    6.9260 C.ar      1 <0>        -0.1945
      2 C2          0.4995    1.4601    6.3130 C.ar      1 <0>        -0.0294
      3 C3         -0.5256   -0.7215    6.3505 C.ar      1 <0>        -0.0143
      4 C4         -0.1655    1.7608    5.1157 C.ar      1 <0>        -0.1552
      5 C5         -1.0462    0.8223    4.5419 C.ar      1 <0>         0.3076
      6 C6         -1.2011   -0.4241    5.1658 C.ar      1 <0>        -0.4908
      7 C7          3.5686   -3.4379    3.7704 C.2       1 <0>         0.5994
      8 C8          0.8654   -1.4427    3.2413 C.2       1 <0>         0.6462
      9 C9          1.9486   -6.5797   -0.1596 C.cat     1 <0>         0.6305
     10 C10         0.0346    3.1106    4.4690 C.3       1 <0>        -0.0319
     11 C11         3.4440   -0.0674    5.4719 C.3       1 <0>        -0.0918
     12 C12         3.1682   -2.4952    6.0163 C.3       1 <0>        -0.0841
     13 C13         2.9000   -0.3276    4.0730 C.3       1 <0>         0.0870
     14 C14        -1.7112    2.4331    2.8019 C.3       1 <0>         0.2023
     15 C15         2.5392   -2.7371    4.6417 C.3       1 <0>         0.0778
     16 C16        -0.3325    3.0781    2.9771 C.3       1 <0>        -0.0746
     17 C17         4.1435   -1.3104    6.0281 C.3       1 <0>        -0.0681
     18 C18        -0.3048    4.4824    2.3800 C.3       1 <0>        -0.0944
     19 C19         4.6673   -1.0527    7.4396 C.3       1 <0>        -0.0918
     20 C20        -0.5404   -4.8511    2.0458 C.3       1 <0>        -0.1192
     21 C21         0.3004   -3.5693    2.0376 C.3       1 <0>        -0.0916
     22 C22        -0.1768   -5.7847    0.8978 C.3       1 <0>         0.1883
     23 C23        -0.0078   -2.6730    3.2260 C.3       1 <0>         0.1952
     24 N1         -1.7179    1.0923    3.3560 N.pl3     1 <0>        -0.7670
     25 N2          2.0252   -1.5038    4.0223 N.am      1 <0>        -0.4509
     26 N3          3.2758   -6.9846   -0.0613 N.pl3     1 <0>        -0.8477
     27 N4          1.3434   -6.5385   -1.4110 N.pl3     1 <0>        -0.8633
     28 N5          1.2122   -6.2141    0.9723 N.pl3     1 <0>        -0.7419
     29 N6         -1.3760   -2.1385    3.1042 N.pl3     1 <0>        -0.8860
     30 O1          4.3335   -2.8779    2.9993 O.2       1 <0>        -0.5199
     31 O2          0.5240   -0.4555    2.5844 O.2       1 <0>        -0.6131
     32 O3         -2.2645   -2.7847    5.4337 O.2       1 <0>        -0.6576
     33 O4         -3.4757   -1.0330    4.0961 O.2       1 <0>        -0.6482
     34 O5          3.5241   -4.7791    3.9616 O.3       1 <0>        -0.6303
     35 S1         -2.2397   -1.6774    4.4970 S.o2      1 <0>         1.5193
     36 H1          0.8435   -0.0082    7.8502 H         1 <0>         0.1426
     37 H2          1.1648    2.1899    6.7682 H         1 <0>         0.1398
     38 H3         -0.6680   -1.6917    6.8158 H         1 <0>         0.1599
     39 H4         -0.5887    3.8423    4.9988 H         1 <0>         0.0574
     40 H5          1.0806    3.4239    4.5739 H         1 <0>         0.0629
     41 H6          4.1435    0.7764    5.4419 H         1 <0>         0.0614
     42 H7          2.6191    0.2214    6.1357 H         1 <0>         0.0593
     43 H8          2.3618   -2.2928    6.7345 H         1 <0>         0.0841
     44 H9          3.6813   -3.3988    6.3690 H         1 <0>         0.0679
     45 H10         2.3679    0.5618    3.7197 H         1 <0>         0.0826
     46 H11         3.7232   -0.5081    3.3711 H         1 <0>         0.0383
     47 H12        -2.4838    3.0348    3.2965 H         1 <0>         0.0556
     48 H13        -1.9724    2.3804    1.7391 H         1 <0>         0.0415
     49 H14         1.7211   -3.4548    4.7590 H         1 <0>         0.0851
     50 H15         0.4108    2.4697    2.4442 H         1 <0>         0.0639
     51 H16         5.0063   -1.5479    5.3937 H         1 <0>         0.0584
     52 H17        -0.3231    4.4358    1.2871 H         1 <0>         0.0401
     53 H18        -1.1718    5.0598    2.7148 H         1 <0>         0.0440
     54 H19         0.6017    5.0127    2.6870 H         1 <0>         0.0459
     55 H20         4.2777   -1.8006    8.1367 H         1 <0>         0.0456
     56 H21         5.7602   -1.1000    7.4588 H         1 <0>         0.0366
     57 H22         4.3590   -0.0627    7.7891 H         1 <0>         0.0474
     58 H23        -0.4002   -5.3741    2.9994 H         1 <0>         0.0800
     59 H24        -1.6035   -4.5964    1.9658 H         1 <0>         0.0681
     60 H25         0.1357   -3.0322    1.0943 H         1 <0>         0.0740
     61 H26         1.3654   -3.8328    2.0643 H         1 <0>         0.0631
     62 H27        -0.3350   -5.3004   -0.0711 H         1 <0>         0.0970
     63 H28        -0.8024   -6.6822    0.9336 H         1 <0>         0.0725
     64 H29         0.1003   -3.1895    4.1787 H         1 <0>         0.0839
     65 H30        -2.3965    0.4186    3.0229 H         1 <0>         0.4531
     66 H31         3.7597   -7.0282    0.8316 H         1 <0>         0.4798
     67 H32         3.8043   -7.2482   -0.8897 H         1 <0>         0.4881
     68 H33         0.3749   -6.2473   -1.5189 H         1 <0>         0.4801
     69 H34         1.8534   -6.7997   -2.2514 H         1 <0>         0.4806
     70 H35         1.6838   -6.2547    1.8771 H         1 <0>         0.4689
     71 H36        -1.6042   -1.6955    2.2078 H         1 <0>         0.4505
     72 H37         4.1809   -5.2504    3.4059 H         1 <0>         0.4443
@<TRIPOS>BOND
     1    1    2 ar
     2    1    3 ar
     3    2    4 ar
     4    3    6 ar
     5    4    5 ar
     6    4   10 1
     7    5    6 ar
     8    5   24 1
     9    6   35 1
    10    7   15 1
    11    7   30 2
    12    7   34 1
    13    8   23 1
    14    8   25 am
    15    8   31 2
    16    9   26 1
    17    9   27 1
    18    9   28 1
    19   10   16 1
    20   11   13 1
    21   11   17 1
    22   12   15 1
    23   12   17 1
    24   13   25 1
    25   14   16 1
    26   14   24 1
    27   15   25 1
    28   16   18 1
    29   17   19 1
    30   20   21 1
    31   20   22 1
    32   21   23 1
    33   22   28 1
    34   23   29 1
    35   29   35 1
    36   32   35 2
    37   33   35 2
    38    1   36 1
    39    2   37 1
    40    3   38 1
    41   10   39 1
    42   10   40 1
    43   11   41 1
    44   11   42 1
    45   12   43 1
    46   12   44 1
    47   13   45 1
    48   13   46 1
    49   14   47 1
    50   14   48 1
    51   15   49 1
    52   16   50 1
    53   17   51 1
    54   18   52 1
    55   18   53 1
    56   18   54 1
    57   19   55 1
    58   19   56 1
    59   19   57 1
    60   20   58 1
    61   20   59 1
    62   21   60 1
    63   21   61 1
    64   22   62 1
    65   22   63 1
    66   23   64 1
    67   24   65 1
    68   26   66 1
    69   26   67 1
    70   27   68 1
    71   27   69 1
    72   28   70 1
    73   29   71 1
    74   34   72 1
@<TRIPOS>MOLECULE
1dwc_ligand_103
   72    74     0     0     0
SMALL
USER_CHARGES

mmff94s_NoEstat = 77.39
@<TRIPOS>ATOM
      1 C1          8.0619   -4.1173   -4.2286 C.ar      1 <0>        -0.1945
      2 C2          7.9046   -3.2841   -5.3341 C.ar      1 <0>        -0.0294
      3 C3          7.5160   -3.7522   -3.0018 C.ar      1 <0>        -0.0143
      4 C4          7.2019   -2.0761   -5.2175 C.ar      1 <0>        -0.1552
      5 C5          6.6218   -1.7131   -3.9862 C.ar      1 <0>         0.3076
      6 C6          6.8044   -2.5574   -2.8813 C.ar      1 <0>        -0.4908
      7 C7          2.8752    1.3115    1.1058 C.2       1 <0>         0.5994
      8 C8          2.9466   -1.3973   -0.6457 C.2       1 <0>         0.6462
      9 C9          1.5211   -6.2682   -6.2170 C.cat     1 <0>         0.6305
     10 C10         7.0351   -1.1905   -6.4289 C.3       1 <0>        -0.0319
     11 C11         2.3641    2.0271   -2.0925 C.3       1 <0>        -0.0918
     12 C12         0.7649    1.6065   -0.1433 C.3       1 <0>        -0.0841
     13 C13         2.2856    0.5067   -2.1800 C.3       1 <0>         0.0870
     14 C14         5.5668    0.2674   -5.0034 C.3       1 <0>         0.2023
     15 C15         1.8211    0.5897    0.2827 C.3       1 <0>         0.0778
     16 C16         6.6810    0.2582   -6.0555 C.3       1 <0>        -0.0746
     17 C17         1.2898    2.6259   -1.1701 C.3       1 <0>        -0.0681
     18 C18         7.9114    1.0461   -5.5915 C.3       1 <0>        -0.0944
     19 C19         0.1276    3.2108   -1.9746 C.3       1 <0>        -0.0918
     20 C20         2.8965   -3.7759   -3.7050 C.3       1 <0>        -0.1192
     21 C21         2.4114   -3.0756   -2.4306 C.3       1 <0>        -0.0916
     22 C22         1.8232   -4.6695   -4.3142 C.3       1 <0>         0.1883
     23 C23         3.4544   -2.1251   -1.8653 C.3       1 <0>         0.1952
     24 N1          5.9268   -0.5192   -3.8388 N.pl3     1 <0>        -0.7670
     25 N2          2.3949   -0.1309   -0.8598 N.am      1 <0>        -0.4509
     26 N3          2.0025   -6.9024   -7.3576 N.pl3     1 <0>        -0.8477
     27 N4          0.2351   -6.5562   -5.7729 N.pl3     1 <0>        -0.8633
     28 N5          2.3028   -5.3489   -5.5092 N.pl3     1 <0>        -0.7419
     29 N6          4.6097   -2.8934   -1.3678 N.pl3     1 <0>        -0.8860
     30 O1          2.6539    1.9546    2.1211 O.2       1 <0>        -0.5199
     31 O2          3.0377   -1.9312    0.4627 O.2       1 <0>        -0.6131
     32 O3          6.9529   -2.8526   -0.2994 O.2       1 <0>        -0.6576
     33 O4          5.9925   -0.7285   -1.2427 O.2       1 <0>        -0.6482
     34 O5          4.1045    1.1486    0.5584 O.3       1 <0>        -0.6303
     35 S1          6.1490   -2.1694   -1.2948 S.o2      1 <0>         1.5193
     36 H1          8.6128   -5.0492   -4.3233 H         1 <0>         0.1426
     37 H2          8.3370   -3.5761   -6.2882 H         1 <0>         0.1398
     38 H3          7.6373   -4.3904   -2.1321 H         1 <0>         0.1599
     39 H4          7.9496   -1.2005   -7.0344 H         1 <0>         0.0574
     40 H5          6.2282   -1.6124   -7.0418 H         1 <0>         0.0629
     41 H6          3.3521    2.2982   -1.6971 H         1 <0>         0.0614
     42 H7          2.3049    2.4652   -3.0956 H         1 <0>         0.0593
     43 H8         -0.0830    1.0592   -0.5778 H         1 <0>         0.0841
     44 H9          0.3696    2.1440    0.7282 H         1 <0>         0.0679
     45 H10         1.3285    0.1928   -2.6129 H         1 <0>         0.0826
     46 H11         3.0787    0.1346   -2.8358 H         1 <0>         0.0383
     47 H12         5.3450    1.2940   -4.6914 H         1 <0>         0.0556
     48 H13         4.6461   -0.1420   -5.4370 H         1 <0>         0.0415
     49 H14         1.3638   -0.1412    0.9605 H         1 <0>         0.0851
     50 H15         6.3127    0.7634   -6.9569 H         1 <0>         0.0639
     51 H16         1.7477    3.4645   -0.6301 H         1 <0>         0.0584
     52 H17         8.7766    0.3839   -5.4916 H         1 <0>         0.0401
     53 H18         8.1596    1.8310   -6.3121 H         1 <0>         0.0440
     54 H19         7.7235    1.5158   -4.6214 H         1 <0>         0.0459
     55 H20         0.4103    4.1714   -2.4154 H         1 <0>         0.0456
     56 H21        -0.1604    2.5322   -2.7831 H         1 <0>         0.0366
     57 H22        -0.7432    3.3698   -1.3317 H         1 <0>         0.0474
     58 H23         3.2051   -3.0234   -4.4407 H         1 <0>         0.0800
     59 H24         3.7751   -4.3904   -3.4776 H         1 <0>         0.0681
     60 H25         2.1309   -3.8309   -1.6847 H         1 <0>         0.0740
     61 H26         1.5011   -2.5046   -2.6534 H         1 <0>         0.0631
     62 H27         0.9326   -4.0920   -4.5817 H         1 <0>         0.0970
     63 H28         1.5245   -5.4384   -3.5946 H         1 <0>         0.0725
     64 H29         3.7902   -1.3903   -2.5956 H         1 <0>         0.0839
     65 H30         5.4649   -0.3392   -2.9558 H         1 <0>         0.4531
     66 H31         2.9348   -6.7217   -7.7201 H         1 <0>         0.4798
     67 H32         1.4271   -7.5693   -7.8669 H         1 <0>         0.4881
     68 H33        -0.1482   -6.1107   -4.9428 H         1 <0>         0.4801
     69 H34        -0.3558   -7.2211   -6.2664 H         1 <0>         0.4806
     70 H35         3.2427   -5.1582   -5.8596 H         1 <0>         0.4689
     71 H36         4.3912   -3.6637   -0.7270 H         1 <0>         0.4505
     72 H37         4.7996    1.6094    1.0749 H         1 <0>         0.4443
@<TRIPOS>BOND
     1    1    2 ar
     2    1    3 ar
     3    2    4 ar
     4    3    6 ar
     5    4    5 ar
     6    4   10 1
     7    5    6 ar
     8    5   24 1
     9    6   35 1
    10    7   15 1
    11    7   30 2
    12    7   34 1
    13    8   23 1
    14    8   25 am
    15    8   31 2
    16    9   26 1
    17    9   27 1
    18    9   28 1
    19   10   16 1
    20   11   13 1
    21   11   17 1
    22   12   15 1
    23   12   17 1
    24   13   25 1
    25   14   16 1
    26   14   24 1
    27   15   25 1
    28   16   18 1
    29   17   19 1
    30   20   21 1
    31   20   22 1
    32   21   23 1
    33   22   28 1
    34   23   29 1
    35   29   35 1
    36   32   35 2
    37   33   35 2
    38    1   36 1
    39    2   37 1
    40    3   38 1
    41   10   39 1
    42   10   40 1
    43   11   41 1
    44   11   42 1
    45   12   43 1
    46   12   44 1
    47   13   45 1
    48   13   46 1
    49   14   47 1
    50   14   48 1
    51   15   49 1
    52   16   50 1
    53   17   51 1
    54   18   52 1
    55   18   53 1
    56   18   54 1
    57   19   55 1
    58   19   56 1
    59   19   57 1
    60   20   58 1
    61   20   59 1
    62   21   60 1
    63   21   61 1
    64   22   62 1
    65   22   63 1
    66   23   64 1
    67   24   65 1
    68   26   66 1
    69   26   67 1
    70   27   68 1
    71   27   69 1
    72   28   70 1
    73   29   71 1
    74   34   72 1
@<TRIPOS>MOLECULE
1dwc_ligand_104
   72    74     0     0     0
SMALL
USER_CHARGES

mmff94s_NoEstat = 77.41
@<TRIPOS>ATOM
      1 C1         -2.1552   -6.8769    3.3635 C.ar      1 <0>        -0.1945
      2 C2         -2.5157   -7.0906    2.0347 C.ar      1 <0>        -0.0294
      3 C3         -2.2108   -5.5938    3.8998 C.ar      1 <0>        -0.0143
      4 C4         -2.9386   -6.0198    1.2342 C.ar      1 <0>        -0.1552
      5 C5         -2.9700   -4.7133    1.7612 C.ar      1 <0>         0.3076
      6 C6         -2.6182   -4.5211    3.1051 C.ar      1 <0>        -0.4908
      7 C7          1.8094   -2.2220    6.4146 C.2       1 <0>         0.5994
      8 C8          0.8654   -1.4427    3.2413 C.2       1 <0>         0.6462
      9 C9          1.3456   -6.9412   -0.3642 C.cat     1 <0>         0.6305
     10 C10        -3.3185   -6.2686   -0.2059 C.3       1 <0>        -0.0319
     11 C11         1.3547    1.4153    5.5015 C.3       1 <0>        -0.0918
     12 C12         0.1935   -0.3932    6.7850 C.3       1 <0>        -0.0841
     13 C13         1.9116    0.3681    4.5455 C.3       1 <0>         0.0870
     14 C14        -3.5741   -3.7853   -0.4384 C.3       1 <0>         0.2023
     15 C15         0.6811   -1.4322    5.7719 C.3       1 <0>         0.0778
     16 C16        -4.2102   -5.1431   -0.7536 C.3       1 <0>        -0.0746
     17 C17         1.1262    0.8207    6.8935 C.3       1 <0>        -0.0681
     18 C18        -4.4335   -5.3085   -2.2543 C.3       1 <0>        -0.0944
     19 C19         0.5462    1.8676    7.8426 C.3       1 <0>        -0.0918
     20 C20         1.7689   -4.0083    2.0091 C.3       1 <0>        -0.1192
     21 C21         0.3004   -3.5693    2.0376 C.3       1 <0>        -0.0916
     22 C22         2.0958   -4.8429    0.7769 C.3       1 <0>         0.1883
     23 C23        -0.0078   -2.6730    3.2260 C.3       1 <0>         0.1952
     24 N1         -3.3855   -3.6334    0.9920 N.pl3     1 <0>        -0.7670
     25 N2          1.0754   -0.8353    4.4846 N.am      1 <0>        -0.4509
     26 N3          0.5495   -8.0810   -0.4079 N.pl3     1 <0>        -0.8477
     27 N4          2.2318   -6.6929   -1.4069 N.pl3     1 <0>        -0.8633
     28 N5          1.2730   -6.0418    0.7049 N.pl3     1 <0>        -0.7419
     29 N6         -1.3760   -2.1385    3.1042 N.pl3     1 <0>        -0.8860
     30 O1          2.9993   -1.9718    6.2928 O.2       1 <0>        -0.5199
     31 O2          1.3411   -1.0305    2.1799 O.2       1 <0>        -0.6131
     32 O3         -3.9192   -2.2979    3.4785 O.2       1 <0>        -0.6576
     33 O4         -2.3570   -3.1258    5.2669 O.2       1 <0>        -0.6482
     34 O5          1.3170   -3.2520    7.1454 O.3       1 <0>        -0.6303
     35 S1         -2.6746   -2.9347    3.8647 S.o2      1 <0>         1.5193
     36 H1         -1.8347   -7.7114    3.9810 H         1 <0>         0.1426
     37 H2         -2.4720   -8.0969    1.6249 H         1 <0>         0.1398
     38 H3         -1.9383   -5.4164    4.9353 H         1 <0>         0.1599
     39 H4         -2.3970   -6.3462   -0.7968 H         1 <0>         0.0574
     40 H5         -3.8526   -7.2228   -0.2920 H         1 <0>         0.0629
     41 H6          2.0492    2.2615    5.5629 H         1 <0>         0.0614
     42 H7          0.4079    1.8038    5.1048 H         1 <0>         0.0593
     43 H8         -0.8003   -0.0449    6.4717 H         1 <0>         0.0841
     44 H9          0.0668   -0.8506    7.7745 H         1 <0>         0.0679
     45 H10         2.0225    0.8091    3.5494 H         1 <0>         0.0826
     46 H11         2.9105    0.0502    4.8680 H         1 <0>         0.0383
     47 H12        -2.6062   -3.6862   -0.9454 H         1 <0>         0.0556
     48 H13        -4.2146   -2.9737   -0.8012 H         1 <0>         0.0415
     49 H14        -0.1232   -2.1562    5.6073 H         1 <0>         0.0851
     50 H15        -5.1893   -5.1964   -0.2584 H         1 <0>         0.0639
     51 H16         2.0901    0.4983    7.3061 H         1 <0>         0.0584
     52 H17        -5.2505   -4.6651   -2.5945 H         1 <0>         0.0401
     53 H18        -3.5296   -5.0402   -2.8094 H         1 <0>         0.0440
     54 H19        -4.6894   -6.3451   -2.4928 H         1 <0>         0.0459
     55 H20        -0.3870    1.5087    8.2868 H         1 <0>         0.0456
     56 H21         1.2507    2.0862    8.6507 H         1 <0>         0.0366
     57 H22         0.3370    2.7982    7.3067 H         1 <0>         0.0474
     58 H23         2.4156   -3.1229    2.0318 H         1 <0>         0.0800
     59 H24         1.9949   -4.6013    2.9028 H         1 <0>         0.0681
     60 H25        -0.3448   -4.4577    2.0448 H         1 <0>         0.0740
     61 H26         0.0666   -3.0218    1.1158 H         1 <0>         0.0631
     62 H27         3.1472   -5.1474    0.7729 H         1 <0>         0.0970
     63 H28         1.9091   -4.2592   -0.1301 H         1 <0>         0.0725
     64 H29         0.1003   -3.1895    4.1787 H         1 <0>         0.0839
     65 H30        -3.3193   -2.7048    1.3903 H         1 <0>         0.4531
     66 H31        -0.1107   -8.3043    0.3321 H         1 <0>         0.4798
     67 H32         0.6091   -8.7303   -1.1889 H         1 <0>         0.4881
     68 H33         2.8285   -5.8692   -1.4068 H         1 <0>         0.4801
     69 H34         2.3056   -7.3283   -2.1978 H         1 <0>         0.4806
     70 H35         0.6129   -6.2511    1.4553 H         1 <0>         0.4689
     71 H36        -1.4476   -1.1318    2.9219 H         1 <0>         0.4505
     72 H37         2.0308   -3.7759    7.5675 H         1 <0>         0.4443
@<TRIPOS>BOND
     1    1    2 ar
     2    1    3 ar
     3    2    4 ar
     4    3    6 ar
     5    4    5 ar
     6    4   10 1
     7    5    6 ar
     8    5   24 1
     9    6   35 1
    10    7   15 1
    11    7   30 2
    12    7   34 1
    13    8   23 1
    14    8   25 am
    15    8   31 2
    16    9   26 1
    17    9   27 1
    18    9   28 1
    19   10   16 1
    20   11   13 1
    21   11   17 1
    22   12   15 1
    23   12   17 1
    24   13   25 1
    25   14   16 1
    26   14   24 1
    27   15   25 1
    28   16   18 1
    29   17   19 1
    30   20   21 1
    31   20   22 1
    32   21   23 1
    33   22   28 1
    34   23   29 1
    35   29   35 1
    36   32   35 2
    37   33   35 2
    38    1   36 1
    39    2   37 1
    40    3   38 1
    41   10   39 1
    42   10   40 1
    43   11   41 1
    44   11   42 1
    45   12   43 1
    46   12   44 1
    47   13   45 1
    48   13   46 1
    49   14   47 1
    50   14   48 1
    51   15   49 1
    52   16   50 1
    53   17   51 1
    54   18   52 1
    55   18   53 1
    56   18   54 1
    57   19   55 1
    58   19   56 1
    59   19   57 1
    60   20   58 1
    61   20   59 1
    62   21   60 1
    63   21   61 1
    64   22   62 1
    65   22   63 1
    66   23   64 1
    67   24   65 1
    68   26   66 1
    69   26   67 1
    70   27   68 1
    71   27   69 1
    72   28   70 1
    73   29   71 1
    74   34   72 1
@<TRIPOS>MOLECULE
1dwc_ligand_105
   72    74     0     0     0
SMALL
USER_CHARGES

mmff94s_NoEstat = 77.45
@<TRIPOS>ATOM
      1 C1         -3.5298   -6.2535    4.3510 C.ar      1 <0>        -0.1945
      2 C2         -4.3901   -6.3642    3.2606 C.ar      1 <0>        -0.0294
      3 C3         -2.9628   -5.0220    4.6653 C.ar      1 <0>        -0.0143
      4 C4         -4.6918   -5.2398    2.4790 C.ar      1 <0>        -0.1552
      5 C5         -4.0992   -3.9956    2.7730 C.ar      1 <0>         0.3076
      6 C6         -3.2482   -3.9013    3.8837 C.ar      1 <0>        -0.4908
      7 C7          2.9525   -3.7210    4.6633 C.2       1 <0>         0.5994
      8 C8          0.8654   -1.4427    3.2413 C.2       1 <0>         0.6462
      9 C9         -0.0382   -5.7761   -1.6019 C.cat     1 <0>         0.6305
     10 C10        -5.6204   -5.3796    1.2965 C.3       1 <0>        -0.0319
     11 C11         3.8997   -0.0663    4.7953 C.3       1 <0>        -0.0918
     12 C12         3.0155   -1.8674    6.2922 C.3       1 <0>        -0.0841
     13 C13         3.1900   -0.7124    3.6122 C.3       1 <0>         0.0870
     14 C14        -5.1062   -2.9837    0.7664 C.3       1 <0>         0.2023
     15 C15         2.2314   -2.4635    5.1202 C.3       1 <0>         0.0778
     16 C16        -6.2232   -4.0248    0.8929 C.3       1 <0>        -0.0746
     17 C17         4.2756   -1.1130    5.8473 C.3       1 <0>        -0.0681
     18 C18        -7.0091   -4.1462   -0.4097 C.3       1 <0>        -0.0944
     19 C19         4.9663   -0.4582    7.0420 C.3       1 <0>        -0.0918
     20 C20        -0.5404   -4.8511    2.0458 C.3       1 <0>        -0.1192
     21 C21         0.3004   -3.5693    2.0376 C.3       1 <0>        -0.0916
     22 C22        -0.1768   -5.7847    0.8978 C.3       1 <0>         0.1883
     23 C23        -0.0078   -2.6730    3.2260 C.3       1 <0>         0.1952
     24 N1         -4.3801   -2.8644    2.0167 N.pl3     1 <0>        -0.7670
     25 N2          2.0252   -1.5038    4.0223 N.am      1 <0>        -0.4509
     26 N3         -0.2239   -5.1414   -2.8257 N.pl3     1 <0>        -0.8477
     27 N4          0.4773   -7.0675   -1.5794 N.pl3     1 <0>        -0.8633
     28 N5         -0.3589   -5.1430   -0.3963 N.pl3     1 <0>        -0.7419
     29 N6         -1.3760   -2.1385    3.1042 N.pl3     1 <0>        -0.8860
     30 O1          3.7741   -3.7699    3.7601 O.2       1 <0>        -0.5199
     31 O2          0.5240   -0.4555    2.5844 O.2       1 <0>        -0.6131
     32 O3         -3.5166   -1.3454    4.2968 O.2       1 <0>        -0.6576
     33 O4         -1.7865   -2.6277    5.5955 O.2       1 <0>        -0.6482
     34 O5          2.5581   -4.7916    5.3952 O.3       1 <0>        -0.6303
     35 S1         -2.5018   -2.3799    4.3583 S.o2      1 <0>         1.5193
     36 H1         -3.3049   -7.1268    4.9571 H         1 <0>         0.1426
     37 H2         -4.8309   -7.3297    3.0242 H         1 <0>         0.1398
     38 H3         -2.2961   -4.9225    5.5159 H         1 <0>         0.1599
     39 H4         -5.0522   -5.8078    0.4610 H         1 <0>         0.0574
     40 H5         -6.4331   -6.0751    1.5397 H         1 <0>         0.0629
     41 H6          4.7987    0.4538    4.4437 H         1 <0>         0.0614
     42 H7          3.2442    0.6909    5.2441 H         1 <0>         0.0593
     43 H8          2.3586   -1.1679    6.8273 H         1 <0>         0.0841
     44 H9          3.2888   -2.6509    7.0104 H         1 <0>         0.0679
     45 H10         2.8945    0.0639    2.8988 H         1 <0>         0.0826
     46 H11         3.8704   -1.3909    3.0835 H         1 <0>         0.0383
     47 H12        -4.4091   -3.2616   -0.0338 H         1 <0>         0.0556
     48 H13        -5.5272   -2.0065    0.5046 H         1 <0>         0.0415
     49 H14         1.2607   -2.8048    5.4936 H         1 <0>         0.0851
     50 H15        -6.9191   -3.7005    1.6784 H         1 <0>         0.0639
     51 H16         4.9839   -1.8245    5.4052 H         1 <0>         0.0584
     52 H17        -7.6317   -3.2604   -0.5670 H         1 <0>         0.0401
     53 H18        -6.3292   -4.2450   -1.2612 H         1 <0>         0.0440
     54 H19        -7.6604   -5.0250   -0.3851 H         1 <0>         0.0459
     55 H20         4.4464   -0.7091    7.9715 H         1 <0>         0.0456
     56 H21         6.0020   -0.8015    7.1231 H         1 <0>         0.0366
     57 H22         4.9717    0.6305    6.9335 H         1 <0>         0.0474
     58 H23        -0.4002   -5.3741    2.9994 H         1 <0>         0.0800
     59 H24        -1.6035   -4.5964    1.9658 H         1 <0>         0.0681
     60 H25         0.1357   -3.0322    1.0943 H         1 <0>         0.0740
     61 H26         1.3654   -3.8328    2.0643 H         1 <0>         0.0631
     62 H27        -0.7862   -6.6937    0.9190 H         1 <0>         0.0970
     63 H28         0.8744   -6.0800    0.9749 H         1 <0>         0.0725
     64 H29         0.1003   -3.1895    4.1787 H         1 <0>         0.0839
     65 H30        -3.8731   -2.0116    2.2195 H         1 <0>         0.4531
     66 H31        -0.5995   -4.1991   -2.8910 H         1 <0>         0.4798
     67 H32         0.0114   -5.6094   -3.6979 H         1 <0>         0.4881
     68 H33         0.6256   -7.5607   -0.7023 H         1 <0>         0.4801
     69 H34         0.7207   -7.5524   -2.4398 H         1 <0>         0.4806
     70 H35        -0.7354   -4.1951   -0.4451 H         1 <0>         0.4689
     71 H36        -1.4850   -1.3266    2.4871 H         1 <0>         0.4505
     72 H37         3.0115   -5.6147    5.1139 H         1 <0>         0.4443
@<TRIPOS>BOND
     1    1    2 ar
     2    1    3 ar
     3    2    4 ar
     4    3    6 ar
     5    4    5 ar
     6    4   10 1
     7    5    6 ar
     8    5   24 1
     9    6   35 1
    10    7   15 1
    11    7   30 2
    12    7   34 1
    13    8   23 1
    14    8   25 am
    15    8   31 2
    16    9   26 1
    17    9   27 1
    18    9   28 1
    19   10   16 1
    20   11   13 1
    21   11   17 1
    22   12   15 1
    23   12   17 1
    24   13   25 1
    25   14   16 1
    26   14   24 1
    27   15   25 1
    28   16   18 1
    29   17   19 1
    30   20   21 1
    31   20   22 1
    32   21   23 1
    33   22   28 1
    34   23   29 1
    35   29   35 1
    36   32   35 2
    37   33   35 2
    38    1   36 1
    39    2   37 1
    40    3   38 1
    41   10   39 1
    42   10   40 1
    43   11   41 1
    44   11   42 1
    45   12   43 1
    46   12   44 1
    47   13   45 1
    48   13   46 1
    49   14   47 1
    50   14   48 1
    51   15   49 1
    52   16   50 1
    53   17   51 1
    54   18   52 1
    55   18   53 1
    56   18   54 1
    57   19   55 1
    58   19   56 1
    59   19   57 1
    60   20   58 1
    61   20   59 1
    62   21   60 1
    63   21   61 1
    64   22   62 1
    65   22   63 1
    66   23   64 1
    67   24   65 1
    68   26   66 1
    69   26   67 1
    70   27   68 1
    71   27   69 1
    72   28   70 1
    73   29   71 1
    74   34   72 1
@<TRIPOS>MOLECULE
1dwc_ligand_106
   72    74     0     0     0
SMALL
USER_CHARGES

mmff94s_NoEstat = 77.46
@<TRIPOS>ATOM
      1 C1         -1.9965   -5.9212    5.9958 C.ar      1 <0>        -0.1945
      2 C2         -2.1862   -5.2163    7.1826 C.ar      1 <0>        -0.0294
      3 C3         -2.1655   -5.2788    4.7728 C.ar      1 <0>        -0.0143
      4 C4         -2.5430   -3.8606    7.1524 C.ar      1 <0>        -0.1552
      5 C5         -2.7443   -3.2106    5.9185 C.ar      1 <0>         0.3076
      6 C6         -2.5336   -3.9330    4.7351 C.ar      1 <0>        -0.4908
      7 C7          3.7233   -2.4449    4.7893 C.2       1 <0>         0.5994
      8 C8          0.8654   -1.4427    3.2413 C.2       1 <0>         0.6462
      9 C9          2.1577   -4.6267   -1.7165 C.cat     1 <0>         0.6305
     10 C10        -2.7517   -3.1143    8.4484 C.3       1 <0>        -0.0319
     11 C11         1.7658    0.4222    6.2790 C.3       1 <0>        -0.0918
     12 C12         2.2228   -2.0030    6.6989 C.3       1 <0>        -0.0841
     13 C13         1.9003    0.1799    4.7810 C.3       1 <0>         0.0870
     14 C14        -3.4952   -1.1625    7.0613 C.3       1 <0>         0.2023
     15 C15         2.2690   -2.2605    5.1905 C.3       1 <0>         0.0778
     16 C16        -2.6278   -1.5957    8.2477 C.3       1 <0>        -0.0746
     17 C17         2.6202   -0.5689    7.0736 C.3       1 <0>        -0.0681
     18 C18        -3.0221   -0.8459    9.5173 C.3       1 <0>        -0.0944
     19 C19         2.4647   -0.3375    8.5754 C.3       1 <0>        -0.0918
     20 C20         1.7689   -4.0083    2.0091 C.3       1 <0>        -0.1192
     21 C21         0.3004   -3.5693    2.0376 C.3       1 <0>        -0.0916
     22 C22         2.0958   -4.8429    0.7769 C.3       1 <0>         0.1883
     23 C23        -0.0078   -2.6730    3.2260 C.3       1 <0>         0.1952
     24 N1         -3.0973   -1.8681    5.8578 N.pl3     1 <0>        -0.7670
     25 N2          1.5999   -1.2067    4.4091 N.am      1 <0>        -0.4509
     26 N3          1.9356   -3.8927   -2.8771 N.pl3     1 <0>        -0.8477
     27 N4          2.6719   -5.9149   -1.8171 N.pl3     1 <0>        -0.8633
     28 N5          1.8751   -4.0962   -0.4532 N.pl3     1 <0>        -0.7419
     29 N6         -1.3760   -2.1385    3.1042 N.pl3     1 <0>        -0.8860
     30 O1          4.4876   -3.2640    5.2775 O.2       1 <0>        -0.5199
     31 O2          0.8891   -0.7105    2.2483 O.2       1 <0>        -0.6131
     32 O3         -2.5366   -4.2300    2.1492 O.2       1 <0>        -0.6576
     33 O4         -3.9323   -2.4104    3.1814 O.2       1 <0>        -0.6482
     34 O5          4.0646   -1.5707    3.8113 O.3       1 <0>        -0.6303
     35 S1         -2.7118   -3.1932    3.1483 S.o2      1 <0>         1.5193
     36 H1         -1.7136   -6.9698    6.0253 H         1 <0>         0.1426
     37 H2         -2.0492   -5.7255    8.1337 H         1 <0>         0.1398
     38 H3         -2.0145   -5.8162    3.8419 H         1 <0>         0.1599
     39 H4         -3.7469   -3.3674    8.8354 H         1 <0>         0.0574
     40 H5         -2.0117   -3.4391    9.1901 H         1 <0>         0.0629
     41 H6          2.0669    1.4503    6.5123 H         1 <0>         0.0614
     42 H7          0.7128    0.3207    6.5714 H         1 <0>         0.0593
     43 H8          1.1978   -2.1858    7.0494 H         1 <0>         0.0841
     44 H9          2.8666   -2.7151    7.2306 H         1 <0>         0.0679
     45 H10         1.2456    0.8722    4.2416 H         1 <0>         0.0826
     46 H11         2.9258    0.3867    4.4518 H         1 <0>         0.0383
     47 H12        -4.5547   -1.3611    7.2657 H         1 <0>         0.0556
     48 H13        -3.3943   -0.0847    6.8920 H         1 <0>         0.0415
     49 H14         1.7884   -3.2235    4.9909 H         1 <0>         0.0851
     50 H15        -1.5799   -1.3538    8.0242 H         1 <0>         0.0639
     51 H16         3.6763   -0.4106    6.8224 H         1 <0>         0.0584
     52 H17        -2.7058    0.1999    9.4599 H         1 <0>         0.0401
     53 H18        -4.1069   -0.8706    9.6572 H         1 <0>         0.0440
     54 H19        -2.5511   -1.3005   10.3940 H         1 <0>         0.0459
     55 H20         2.1532   -1.2591    9.0761 H         1 <0>         0.0456
     56 H21         3.4121   -0.0103    9.0142 H         1 <0>         0.0366
     57 H22         1.7112    0.4316    8.7697 H         1 <0>         0.0474
     58 H23         2.4156   -3.1229    2.0318 H         1 <0>         0.0800
     59 H24         1.9949   -4.6013    2.9028 H         1 <0>         0.0681
     60 H25        -0.3448   -4.4577    2.0448 H         1 <0>         0.0740
     61 H26         0.0666   -3.0218    1.1158 H         1 <0>         0.0631
     62 H27         1.4860   -5.7513    0.7413 H         1 <0>         0.0970
     63 H28         3.1484   -5.1425    0.7970 H         1 <0>         0.0725
     64 H29         0.1003   -3.1895    4.1787 H         1 <0>         0.0839
     65 H30        -3.3042   -1.4652    4.9522 H         1 <0>         0.4531
     66 H31         1.5595   -2.9487   -2.8523 H         1 <0>         0.4798
     67 H32         2.1433   -4.2863   -3.7920 H         1 <0>         0.4881
     68 H33         2.8463   -6.4791   -0.9889 H         1 <0>         0.4801
     69 H34         2.8881   -6.3264   -2.7218 H         1 <0>         0.4806
     70 H35         1.4985   -3.1480   -0.4116 H         1 <0>         0.4689
     71 H36        -1.5021   -1.1633    3.3956 H         1 <0>         0.4505
     72 H37         5.0017   -1.6726    3.5394 H         1 <0>         0.4443
@<TRIPOS>BOND
     1    1    2 ar
     2    1    3 ar
     3    2    4 ar
     4    3    6 ar
     5    4    5 ar
     6    4   10 1
     7    5    6 ar
     8    5   24 1
     9    6   35 1
    10    7   15 1
    11    7   30 2
    12    7   34 1
    13    8   23 1
    14    8   25 am
    15    8   31 2
    16    9   26 1
    17    9   27 1
    18    9   28 1
    19   10   16 1
    20   11   13 1
    21   11   17 1
    22   12   15 1
    23   12   17 1
    24   13   25 1
    25   14   16 1
    26   14   24 1
    27   15   25 1
    28   16   18 1
    29   17   19 1
    30   20   21 1
    31   20   22 1
    32   21   23 1
    33   22   28 1
    34   23   29 1
    35   29   35 1
    36   32   35 2
    37   33   35 2
    38    1   36 1
    39    2   37 1
    40    3   38 1
    41   10   39 1
    42   10   40 1
    43   11   41 1
    44   11   42 1
    45   12   43 1
    46   12   44 1
    47   13   45 1
    48   13   46 1
    49   14   47 1
    50   14   48 1
    51   15   49 1
    52   16   50 1
    53   17   51 1
    54   18   52 1
    55   18   53 1
    56   18   54 1
    57   19   55 1
    58   19   56 1
    59   19   57 1
    60   20   58 1
    61   20   59 1
    62   21   60 1
    63   21   61 1
    64   22   62 1
    65   22   63 1
    66   23   64 1
    67   24   65 1
    68   26   66 1
    69   26   67 1
    70   27   68 1
    71   27   69 1
    72   28   70 1
    73   29   71 1
    74   34   72 1
@<TRIPOS>MOLECULE
1dwc_ligand_107
   72    74     0     0     0
SMALL
USER_CHARGES

mmff94s_NoEstat = 77.46
@<TRIPOS>ATOM
      1 C1          2.5114   -5.6807   -0.0973 C.ar      1 <0>        -0.1945
      2 C2          3.8673   -5.6123    0.2155 C.ar      1 <0>        -0.0294
      3 C3          1.5608   -5.5920    0.9152 C.ar      1 <0>        -0.0143
      4 C4          4.2812   -5.4584    1.5465 C.ar      1 <0>        -0.1552
      5 C5          3.3248   -5.3390    2.5738 C.ar      1 <0>         0.3076
      6 C6          1.9651   -5.4258    2.2408 C.ar      1 <0>        -0.4908
      7 C7          0.0474   -1.6003   -0.0563 C.2       1 <0>         0.5994
      8 C8          0.8654   -1.4427    3.2413 C.2       1 <0>         0.6462
      9 C9         -5.3792    0.5120    4.1450 C.cat     1 <0>         0.6305
     10 C10         5.7550   -5.3781    1.8646 C.3       1 <0>        -0.0319
     11 C11         2.7802    0.7752    1.0208 C.3       1 <0>        -0.0918
     12 C12         2.5085   -1.4277   -0.1368 C.3       1 <0>        -0.0841
     13 C13         1.5404    0.4804    1.8554 C.3       1 <0>         0.0870
     14 C14         5.0872   -4.9119    4.2416 C.3       1 <0>         0.2023
     15 C15         1.3165   -1.7600    0.7646 C.3       1 <0>         0.0778
     16 C16         6.0568   -5.6843    3.3406 C.3       1 <0>        -0.0746
     17 C17         2.7020    0.0809   -0.3413 C.3       1 <0>        -0.0681
     18 C18         6.0291   -7.1895    3.6296 C.3       1 <0>        -0.0944
     19 C19         3.9570    0.3602   -1.1659 C.3       1 <0>        -0.0918
     20 C20        -2.1115   -1.2711    3.3990 C.3       1 <0>        -0.1192
     21 C21        -1.3133   -2.4479    3.9716 C.3       1 <0>        -0.0916
     22 C22        -3.3821   -0.9970    4.1941 C.3       1 <0>         0.1883
     23 C23        -0.0078   -2.6730    3.2260 C.3       1 <0>         0.1952
     24 N1          3.7051   -5.1932    3.9020 N.pl3     1 <0>        -0.7670
     25 N2          1.2915   -0.9578    1.9994 N.am      1 <0>        -0.4509
     26 N3         -6.0873    1.5705    3.5854 N.pl3     1 <0>        -0.8477
     27 N4         -5.9120   -0.1549    5.2429 N.pl3     1 <0>        -0.8633
     28 N5         -4.1449    0.1056    3.6268 N.pl3     1 <0>        -0.7419
     29 N6          0.7961   -3.6905    3.9267 N.pl3     1 <0>        -0.8860
     30 O1         -0.6384   -0.5898   -0.0988 O.2       1 <0>        -0.5199
     31 O2          1.1650   -0.9321    4.3240 O.2       1 <0>        -0.6131
     32 O3         -0.5724   -5.5617    2.8045 O.2       1 <0>        -0.6576
     33 O4          1.1151   -6.1600    4.5705 O.2       1 <0>        -0.6482
     34 O5         -0.2271   -2.7383   -0.7395 O.3       1 <0>        -0.6303
     35 S1          0.6998   -5.3249    3.4597 S.o2      1 <0>         1.5193
     36 H1          2.1966   -5.8064   -1.1298 H         1 <0>         0.1426
     37 H2          4.6032   -5.6854   -0.5818 H         1 <0>         0.1398
     38 H3          0.5018   -5.6500    0.6842 H         1 <0>         0.1599
     39 H4          6.3190   -6.0672    1.2240 H         1 <0>         0.0574
     40 H5          6.0915   -4.3598    1.6315 H         1 <0>         0.0629
     41 H6          2.8818    1.8586    0.8858 H         1 <0>         0.0614
     42 H7          3.6725    0.4327    1.5603 H         1 <0>         0.0593
     43 H8          3.4165   -1.8382    0.3259 H         1 <0>         0.0841
     44 H9          2.4035   -1.9216   -1.1111 H         1 <0>         0.0679
     45 H10         1.6443    0.9520    2.8381 H         1 <0>         0.0826
     46 H11         0.6509    0.9155    1.3839 H         1 <0>         0.0383
     47 H12         5.2594   -5.1654    5.2935 H         1 <0>         0.0556
     48 H13         5.2655   -3.8345    4.1379 H         1 <0>         0.0415
     49 H14         1.3647   -2.8230    1.0210 H         1 <0>         0.0851
     50 H15         7.0777   -5.3469    3.5580 H         1 <0>         0.0639
     51 H16         1.8454    0.4816   -0.8972 H         1 <0>         0.0584
     52 H17         5.6697   -7.7420    2.7563 H         1 <0>         0.0401
     53 H18         7.0311   -7.5518    3.8781 H         1 <0>         0.0440
     54 H19         5.3653   -7.4070    4.4717 H         1 <0>         0.0459
     55 H20         4.2296   -0.5171   -1.7602 H         1 <0>         0.0456
     56 H21         3.7904    1.1997   -1.8474 H         1 <0>         0.0366
     57 H22         4.7987    0.6086   -0.5125 H         1 <0>         0.0474
     58 H23        -1.4838   -0.3719    3.3933 H         1 <0>         0.0800
     59 H24        -2.3885   -1.4831    2.3599 H         1 <0>         0.0681
     60 H25        -1.9335   -3.3536    3.9489 H         1 <0>         0.0740
     61 H26        -1.0849   -2.2531    5.0271 H         1 <0>         0.0631
     62 H27        -3.1519   -0.7547    5.2365 H         1 <0>         0.0970
     63 H28        -4.0259   -1.8823    4.1866 H         1 <0>         0.0725
     64 H29        -0.1638   -2.9774    2.1921 H         1 <0>         0.0839
     65 H30         2.9820   -5.0361    4.5933 H         1 <0>         0.4531
     66 H31        -5.7362    2.0880    2.7841 H         1 <0>         0.4798
     67 H32        -6.9840    1.8599    3.9689 H         1 <0>         0.4881
     68 H33        -5.4209   -0.9328    5.6766 H         1 <0>         0.4801
     69 H34        -6.8078    0.1174    5.6406 H         1 <0>         0.4806
     70 H35        -3.7797    0.6144    2.8203 H         1 <0>         0.4689
     71 H36         1.6533   -3.3509    4.3757 H         1 <0>         0.4505
     72 H37        -1.0450   -2.6560   -1.2749 H         1 <0>         0.4443
@<TRIPOS>BOND
     1    1    2 ar
     2    1    3 ar
     3    2    4 ar
     4    3    6 ar
     5    4    5 ar
     6    4   10 1
     7    5    6 ar
     8    5   24 1
     9    6   35 1
    10    7   15 1
    11    7   30 2
    12    7   34 1
    13    8   23 1
    14    8   25 am
    15    8   31 2
    16    9   26 1
    17    9   27 1
    18    9   28 1
    19   10   16 1
    20   11   13 1
    21   11   17 1
    22   12   15 1
    23   12   17 1
    24   13   25 1
    25   14   16 1
    26   14   24 1
    27   15   25 1
    28   16   18 1
    29   17   19 1
    30   20   21 1
    31   20   22 1
    32   21   23 1
    33   22   28 1
    34   23   29 1
    35   29   35 1
    36   32   35 2
    37   33   35 2
    38    1   36 1
    39    2   37 1
    40    3   38 1
    41   10   39 1
    42   10   40 1
    43   11   41 1
    44   11   42 1
    45   12   43 1
    46   12   44 1
    47   13   45 1
    48   13   46 1
    49   14   47 1
    50   14   48 1
    51   15   49 1
    52   16   50 1
    53   17   51 1
    54   18   52 1
    55   18   53 1
    56   18   54 1
    57   19   55 1
    58   19   56 1
    59   19   57 1
    60   20   58 1
    61   20   59 1
    62   21   60 1
    63   21   61 1
    64   22   62 1
    65   22   63 1
    66   23   64 1
    67   24   65 1
    68   26   66 1
    69   26   67 1
    70   27   68 1
    71   27   69 1
    72   28   70 1
    73   29   71 1
    74   34   72 1
@<TRIPOS>MOLECULE
1dwc_ligand_108
   72    74     0     0     0
SMALL
USER_CHARGES

mmff94s_NoEstat = 77.49
@<TRIPOS>ATOM
      1 C1         -3.5298   -6.2535    4.3510 C.ar      1 <0>        -0.1945
      2 C2         -4.3901   -6.3642    3.2606 C.ar      1 <0>        -0.0294
      3 C3         -2.9628   -5.0220    4.6653 C.ar      1 <0>        -0.0143
      4 C4         -4.6918   -5.2398    2.4790 C.ar      1 <0>        -0.1552
      5 C5         -4.0992   -3.9956    2.7730 C.ar      1 <0>         0.3076
      6 C6         -3.2482   -3.9013    3.8837 C.ar      1 <0>        -0.4908
      7 C7          4.0428   -2.6510    3.1279 C.2       1 <0>         0.5994
      8 C8          0.8654   -1.4427    3.2413 C.2       1 <0>         0.6462
      9 C9         -0.8941   -7.9715   -0.0876 C.cat     1 <0>         0.6305
     10 C10        -5.6204   -5.3796    1.2965 C.3       1 <0>        -0.0319
     11 C11         3.0349   -0.4758    6.0475 C.3       1 <0>        -0.0918
     12 C12         3.4817   -2.8819    5.5206 C.3       1 <0>        -0.0841
     13 C13         2.5314   -0.2662    4.6251 C.3       1 <0>         0.0870
     14 C14        -5.1062   -2.9837    0.7664 C.3       1 <0>         0.2023
     15 C15         2.8926   -2.6899    4.1206 C.3       1 <0>         0.0778
     16 C16        -6.2232   -4.0248    0.8929 C.3       1 <0>        -0.0746
     17 C17         4.0802   -1.5931    6.1000 C.3       1 <0>        -0.0681
     18 C18        -7.0091   -4.1462   -0.4097 C.3       1 <0>        -0.0944
     19 C19         4.5654   -1.8157    7.5311 C.3       1 <0>        -0.0918
     20 C20        -0.5404   -4.8511    2.0458 C.3       1 <0>        -0.1192
     21 C21         0.3004   -3.5693    2.0376 C.3       1 <0>        -0.0916
     22 C22        -0.1768   -5.7847    0.8978 C.3       1 <0>         0.1883
     23 C23        -0.0078   -2.6730    3.2260 C.3       1 <0>         0.1952
     24 N1         -4.3801   -2.8644    2.0167 N.pl3     1 <0>        -0.7670
     25 N2          2.0252   -1.5038    4.0223 N.am      1 <0>        -0.4509
     26 N3         -1.6898   -9.1122   -0.0609 N.pl3     1 <0>        -0.8477
     27 N4          0.0239   -7.8094   -1.1196 N.pl3     1 <0>        -0.8633
     28 N5         -0.9984   -6.9865    0.9003 N.pl3     1 <0>        -0.7419
     29 N6         -1.3760   -2.1385    3.1042 N.pl3     1 <0>        -0.8860
     30 O1          4.5855   -1.6340    2.7222 O.2       1 <0>        -0.5199
     31 O2          0.5240   -0.4555    2.5844 O.2       1 <0>        -0.6131
     32 O3         -3.5166   -1.3454    4.2968 O.2       1 <0>        -0.6576
     33 O4         -1.7865   -2.6277    5.5955 O.2       1 <0>        -0.6482
     34 O5          4.3885   -3.9048    2.7464 O.3       1 <0>        -0.6303
     35 S1         -2.5018   -2.3799    4.3583 S.o2      1 <0>         1.5193
     36 H1         -3.3049   -7.1268    4.9571 H         1 <0>         0.1426
     37 H2         -4.8309   -7.3297    3.0242 H         1 <0>         0.1398
     38 H3         -2.2961   -4.9225    5.5159 H         1 <0>         0.1599
     39 H4         -5.0522   -5.8078    0.4610 H         1 <0>         0.0574
     40 H5         -6.4331   -6.0751    1.5397 H         1 <0>         0.0629
     41 H6          3.4643    0.4595    6.4257 H         1 <0>         0.0614
     42 H7          2.1893   -0.7290    6.6997 H         1 <0>         0.0593
     43 H8          2.6805   -3.2276    6.1882 H         1 <0>         0.0841
     44 H9          4.2439   -3.6714    5.5123 H         1 <0>         0.0679
     45 H10         1.7550    0.5058    4.6255 H         1 <0>         0.0826
     46 H11         3.3431    0.0962    3.9827 H         1 <0>         0.0383
     47 H12        -4.4091   -3.2616   -0.0338 H         1 <0>         0.0556
     48 H13        -5.5272   -2.0065    0.5046 H         1 <0>         0.0415
     49 H14         2.3173   -3.5850    3.8636 H         1 <0>         0.0851
     50 H15        -6.9191   -3.7005    1.6784 H         1 <0>         0.0639
     51 H16         4.9487   -1.2974    5.4988 H         1 <0>         0.0584
     52 H17        -7.6317   -3.2604   -0.5670 H         1 <0>         0.0401
     53 H18        -6.3292   -4.2450   -1.2612 H         1 <0>         0.0440
     54 H19        -7.6604   -5.0250   -0.3851 H         1 <0>         0.0459
     55 H20         4.4326   -2.8615    7.8238 H         1 <0>         0.0456
     56 H21         5.6267   -1.5650    7.6207 H         1 <0>         0.0366
     57 H22         4.0032   -1.1886    8.2295 H         1 <0>         0.0474
     58 H23        -0.4002   -5.3741    2.9994 H         1 <0>         0.0800
     59 H24        -1.6035   -4.5964    1.9658 H         1 <0>         0.0681
     60 H25         0.1357   -3.0322    1.0943 H         1 <0>         0.0740
     61 H26         1.3654   -3.8328    2.0643 H         1 <0>         0.0631
     62 H27         0.8739   -6.0869    0.9513 H         1 <0>         0.0970
     63 H28        -0.3350   -5.2785   -0.0598 H         1 <0>         0.0725
     64 H29         0.1003   -3.1895    4.1787 H         1 <0>         0.0839
     65 H30        -3.8731   -2.0116    2.2195 H         1 <0>         0.4531
     66 H31        -2.3726   -9.2741    0.6745 H         1 <0>         0.4798
     67 H32        -1.6070   -9.8240   -0.7830 H         1 <0>         0.4881
     68 H33         0.6213   -6.9877   -1.1696 H         1 <0>         0.4801
     69 H34         0.1212   -8.5082   -1.8524 H         1 <0>         0.4806
     70 H35        -1.6814   -7.1337    1.6450 H         1 <0>         0.4689
     71 H36        -1.4850   -1.3266    2.4871 H         1 <0>         0.4505
     72 H37         5.1292   -3.9010    2.1032 H         1 <0>         0.4443
@<TRIPOS>BOND
     1    1    2 ar
     2    1    3 ar
     3    2    4 ar
     4    3    6 ar
     5    4    5 ar
     6    4   10 1
     7    5    6 ar
     8    5   24 1
     9    6   35 1
    10    7   15 1
    11    7   30 2
    12    7   34 1
    13    8   23 1
    14    8   25 am
    15    8   31 2
    16    9   26 1
    17    9   27 1
    18    9   28 1
    19   10   16 1
    20   11   13 1
    21   11   17 1
    22   12   15 1
    23   12   17 1
    24   13   25 1
    25   14   16 1
    26   14   24 1
    27   15   25 1
    28   16   18 1
    29   17   19 1
    30   20   21 1
    31   20   22 1
    32   21   23 1
    33   22   28 1
    34   23   29 1
    35   29   35 1
    36   32   35 2
    37   33   35 2
    38    1   36 1
    39    2   37 1
    40    3   38 1
    41   10   39 1
    42   10   40 1
    43   11   41 1
    44   11   42 1
    45   12   43 1
    46   12   44 1
    47   13   45 1
    48   13   46 1
    49   14   47 1
    50   14   48 1
    51   15   49 1
    52   16   50 1
    53   17   51 1
    54   18   52 1
    55   18   53 1
    56   18   54 1
    57   19   55 1
    58   19   56 1
    59   19   57 1
    60   20   58 1
    61   20   59 1
    62   21   60 1
    63   21   61 1
    64   22   62 1
    65   22   63 1
    66   23   64 1
    67   24   65 1
    68   26   66 1
    69   26   67 1
    70   27   68 1
    71   27   69 1
    72   28   70 1
    73   29   71 1
    74   34   72 1
@<TRIPOS>MOLECULE
1dwc_ligand_109
   72    74     0     0     0
SMALL
USER_CHARGES

mmff94s_NoEstat = 77.57
@<TRIPOS>ATOM
      1 C1          4.6798   -6.2332   -3.8465 C.ar      1 <0>        -0.1945
      2 C2          5.1305   -5.8526   -5.1088 C.ar      1 <0>        -0.0294
      3 C3          3.6044   -5.5688   -3.2643 C.ar      1 <0>        -0.0143
      4 C4          4.5037   -4.8053   -5.7990 C.ar      1 <0>        -0.1552
      5 C5          3.4330   -4.1086   -5.2043 C.ar      1 <0>         0.3076
      6 C6          2.9841   -4.5166   -3.9399 C.ar      1 <0>        -0.4908
      7 C7          1.8102   -1.5505    2.3702 C.2       1 <0>         0.5994
      8 C8          2.9466   -1.3973   -0.6457 C.2       1 <0>         0.6462
      9 C9          6.5364    0.5009   -5.9324 C.cat     1 <0>         0.6305
     10 C10         5.0101   -4.4014   -7.1630 C.3       1 <0>        -0.0319
     11 C11         4.4920   -3.4807    2.0801 C.3       1 <0>        -0.0918
     12 C12         4.1798   -1.0721    2.8769 C.3       1 <0>        -0.0841
     13 C13         4.5658   -2.7774    0.7291 C.3       1 <0>         0.0870
     14 C14         3.3573   -2.5178   -7.0826 C.3       1 <0>         0.2023
     15 C15         3.1125   -1.0286    1.7861 C.3       1 <0>         0.0778
     16 C16         3.9391   -3.6350   -7.9550 C.3       1 <0>        -0.0746
     17 C17         4.5869   -2.5050    3.2643 C.3       1 <0>        -0.0681
     18 C18         4.5192   -3.0731   -9.2500 C.3       1 <0>        -0.0944
     19 C19         5.9882   -2.5079    3.8779 C.3       1 <0>        -0.0918
     20 C20         4.0666    0.0061   -3.0917 C.3       1 <0>        -0.1192
     21 C21         4.5564   -1.3488   -2.5679 C.3       1 <0>        -0.0916
     22 C22         5.1498    0.7503   -3.8628 C.3       1 <0>         0.1883
     23 C23         3.4544   -2.1251   -1.8653 C.3       1 <0>         0.1952
     24 N1          2.7923   -3.0675   -5.8648 N.pl3     1 <0>        -0.7670
     25 N2          3.5192   -1.7560    0.5781 N.am      1 <0>        -0.4509
     26 N3          6.9409   -0.2356   -7.0409 N.pl3     1 <0>        -0.8477
     27 N4          7.0867    1.7598   -5.7173 N.pl3     1 <0>        -0.8633
     28 N5          5.5893    0.0019   -5.0317 N.pl3     1 <0>        -0.7419
     29 N6          2.2741   -2.2179   -2.7432 N.pl3     1 <0>        -0.8860
     30 O1          1.2492   -1.0925    3.3546 O.2       1 <0>        -0.5199
     31 O2          2.0685   -0.5400   -0.7710 O.2       1 <0>        -0.6131
     32 O3          0.5666   -3.5687   -4.1193 O.2       1 <0>        -0.6576
     33 O4          1.3717   -4.4805   -1.9182 O.2       1 <0>        -0.6482
     34 O5          1.3501   -2.6026    1.6500 O.3       1 <0>        -0.6303
     35 S1          1.6226   -3.7401   -3.1398 S.o2      1 <0>         1.5193
     36 H1          5.1651   -7.0499   -3.3191 H         1 <0>         0.1426
     37 H2          5.9695   -6.3793   -5.5572 H         1 <0>         0.1398
     38 H3          3.2408   -5.8606   -2.2841 H         1 <0>         0.1599
     39 H4          5.9032   -3.7780   -7.0283 H         1 <0>         0.0574
     40 H5          5.3064   -5.2922   -7.7305 H         1 <0>         0.0629
     41 H6          3.5311   -4.0088    2.1410 H         1 <0>         0.0614
     42 H7          5.2694   -4.2509    2.1463 H         1 <0>         0.0593
     43 H8          5.0641   -0.5305    2.5137 H         1 <0>         0.0841
     44 H9          3.8399   -0.5392    3.7741 H         1 <0>         0.0679
     45 H10         5.5312   -2.2723    0.6079 H         1 <0>         0.0826
     46 H11         4.4795   -3.5150   -0.0747 H         1 <0>         0.0383
     47 H12         4.1332   -1.7860   -6.8255 H         1 <0>         0.0556
     48 H13         2.5733   -1.9808   -7.6281 H         1 <0>         0.0415
     49 H14         2.9188    0.0160    1.5141 H         1 <0>         0.0851
     50 H15         3.1316   -4.3307   -8.2205 H         1 <0>         0.0639
     51 H16         3.9047   -2.8651    4.0450 H         1 <0>         0.0584
     52 H17         3.7183   -2.7462   -9.9199 H         1 <0>         0.0401
     53 H18         5.1656   -2.2153   -9.0415 H         1 <0>         0.0440
     54 H19         5.1120   -3.8335   -9.7673 H         1 <0>         0.0459
     55 H20         6.0310   -3.1862    4.7353 H         1 <0>         0.0456
     56 H21         6.7293   -2.8350    3.1425 H         1 <0>         0.0366
     57 H22         6.2606   -1.5045    4.2187 H         1 <0>         0.0474
     58 H23         3.1961   -0.1462   -3.7411 H         1 <0>         0.0800
     59 H24         3.7428    0.6319   -2.2522 H         1 <0>         0.0681
     60 H25         5.4094   -1.1917   -1.8946 H         1 <0>         0.0740
     61 H26         4.9285   -1.9502   -3.4070 H         1 <0>         0.0631
     62 H27         6.0226    0.9442   -3.2312 H         1 <0>         0.0970
     63 H28         4.7647    1.7133   -4.2128 H         1 <0>         0.0725
     64 H29         3.7703   -3.1244   -1.5692 H         1 <0>         0.0839
     65 H30         2.0790   -2.5485   -5.3676 H         1 <0>         0.4531
     66 H31         6.5676   -1.1605   -7.2371 H         1 <0>         0.4798
     67 H32         7.6308    0.1346   -7.6906 H         1 <0>         0.4881
     68 H33         6.8135    2.3249   -4.9169 H         1 <0>         0.4801
     69 H34         7.7763    2.1491   -6.3557 H         1 <0>         0.4806
     70 H35         5.2033   -0.9252   -5.2162 H         1 <0>         0.4689
     71 H36         1.6613   -1.3957   -2.7560 H         1 <0>         0.4505
     72 H37         0.5099   -2.9556    2.0129 H         1 <0>         0.4443
@<TRIPOS>BOND
     1    1    2 ar
     2    1    3 ar
     3    2    4 ar
     4    3    6 ar
     5    4    5 ar
     6    4   10 1
     7    5    6 ar
     8    5   24 1
     9    6   35 1
    10    7   15 1
    11    7   30 2
    12    7   34 1
    13    8   23 1
    14    8   25 am
    15    8   31 2
    16    9   26 1
    17    9   27 1
    18    9   28 1
    19   10   16 1
    20   11   13 1
    21   11   17 1
    22   12   15 1
    23   12   17 1
    24   13   25 1
    25   14   16 1
    26   14   24 1
    27   15   25 1
    28   16   18 1
    29   17   19 1
    30   20   21 1
    31   20   22 1
    32   21   23 1
    33   22   28 1
    34   23   29 1
    35   29   35 1
    36   32   35 2
    37   33   35 2
    38    1   36 1
    39    2   37 1
    40    3   38 1
    41   10   39 1
    42   10   40 1
    43   11   41 1
    44   11   42 1
    45   12   43 1
    46   12   44 1
    47   13   45 1
    48   13   46 1
    49   14   47 1
    50   14   48 1
    51   15   49 1
    52   16   50 1
    53   17   51 1
    54   18   52 1
    55   18   53 1
    56   18   54 1
    57   19   55 1
    58   19   56 1
    59   19   57 1
    60   20   58 1
    61   20   59 1
    62   21   60 1
    63   21   61 1
    64   22   62 1
    65   22   63 1
    66   23   64 1
    67   24   65 1
    68   26   66 1
    69   26   67 1
    70   27   68 1
    71   27   69 1
    72   28   70 1
    73   29   71 1
    74   34   72 1
@<TRIPOS>MOLECULE
1dwc_ligand_110
   72    74     0     0     0
SMALL
USER_CHARGES

mmff94s_NoEstat = 77.61
@<TRIPOS>ATOM
      1 C1         -3.5731   -0.3507    6.7933 C.ar      1 <0>        -0.1945
      2 C2         -2.8629   -0.8352    7.8898 C.ar      1 <0>        -0.0294
      3 C3         -3.4972   -1.0111    5.5706 C.ar      1 <0>        -0.0143
      4 C4         -2.0739   -1.9881    7.7698 C.ar      1 <0>        -0.1552
      5 C5         -1.9688   -2.6459    6.5281 C.ar      1 <0>         0.3076
      6 C6         -2.7033   -2.1518    5.4404 C.ar      1 <0>        -0.4908
      7 C7          3.5686   -3.4379    3.7704 C.2       1 <0>         0.5994
      8 C8          0.8654   -1.4427    3.2413 C.2       1 <0>         0.6462
      9 C9          2.0746   -5.2044   -1.4852 C.cat     1 <0>         0.6305
     10 C10        -1.3052   -2.4948    8.9666 C.3       1 <0>        -0.0319
     11 C11         3.4440   -0.0674    5.4719 C.3       1 <0>        -0.0918
     12 C12         3.1682   -2.4952    6.0163 C.3       1 <0>        -0.0841
     13 C13         2.9000   -0.3276    4.0730 C.3       1 <0>         0.0870
     14 C14        -0.2926   -4.2041    7.4373 C.3       1 <0>         0.2023
     15 C15         2.5392   -2.7371    4.6417 C.3       1 <0>         0.0778
     16 C16        -0.9358   -3.9782    8.8095 C.3       1 <0>        -0.0746
     17 C17         4.1435   -1.3104    6.0281 C.3       1 <0>        -0.0681
     18 C18        -0.0046   -4.4281    9.9318 C.3       1 <0>        -0.0944
     19 C19         4.6673   -1.0527    7.4396 C.3       1 <0>        -0.0918
     20 C20         0.0249   -2.8727    0.7002 C.3       1 <0>        -0.1192
     21 C21         0.3004   -3.5693    2.0376 C.3       1 <0>        -0.0916
     22 C22         0.2602   -3.7963   -0.4886 C.3       1 <0>         0.1883
     23 C23        -0.0078   -2.6730    3.2260 C.3       1 <0>         0.1952
     24 N1         -1.1954   -3.7907    6.3797 N.pl3     1 <0>        -0.7670
     25 N2          2.0252   -1.5038    4.0223 N.am      1 <0>        -0.4509
     26 N3          3.3877   -5.6631   -1.4955 N.pl3     1 <0>        -0.8477
     27 N4          1.1890   -5.6621   -2.4548 N.pl3     1 <0>        -0.8633
     28 N5          1.6278   -4.2942   -0.5212 N.pl3     1 <0>        -0.7419
     29 N6         -1.3760   -2.1385    3.1042 N.pl3     1 <0>        -0.8860
     30 O1          4.3335   -2.8779    2.9993 O.2       1 <0>        -0.5199
     31 O2          0.5240   -0.4555    2.5844 O.2       1 <0>        -0.6131
     32 O3         -2.3304   -4.3295    4.0644 O.2       1 <0>        -0.6576
     33 O4         -3.9087   -2.5768    3.1921 O.2       1 <0>        -0.6482
     34 O5          3.5241   -4.7791    3.9616 O.3       1 <0>        -0.6303
     35 S1         -2.6746   -2.9347    3.8647 S.o2      1 <0>         1.5193
     36 H1         -4.1882    0.5393    6.8939 H         1 <0>         0.1426
     37 H2         -2.9305   -0.3144    8.8420 H         1 <0>         0.1398
     38 H3         -4.0508   -0.6464    4.7113 H         1 <0>         0.1599
     39 H4         -0.3986   -1.8861    9.0767 H         1 <0>         0.0574
     40 H5         -1.9049   -2.3694    9.8765 H         1 <0>         0.0629
     41 H6          4.1435    0.7764    5.4419 H         1 <0>         0.0614
     42 H7          2.6191    0.2214    6.1357 H         1 <0>         0.0593
     43 H8          2.3618   -2.2928    6.7345 H         1 <0>         0.0841
     44 H9          3.6813   -3.3988    6.3690 H         1 <0>         0.0679
     45 H10         2.3679    0.5618    3.7197 H         1 <0>         0.0826
     46 H11         3.7232   -0.5081    3.3711 H         1 <0>         0.0383
     47 H12         0.6461   -3.6422    7.3545 H         1 <0>         0.0556
     48 H13        -0.0488   -5.2639    7.3032 H         1 <0>         0.0415
     49 H14         1.7211   -3.4548    4.7590 H         1 <0>         0.0851
     50 H15        -1.8536   -4.5786    8.8709 H         1 <0>         0.0639
     51 H16         5.0063   -1.5479    5.3937 H         1 <0>         0.0584
     52 H17         0.0610   -5.5198    9.9625 H         1 <0>         0.0401
     53 H18         1.0019   -4.0266    9.7806 H         1 <0>         0.0440
     54 H19        -0.3732   -4.0779   10.9006 H         1 <0>         0.0459
     55 H20         4.2777   -1.8006    8.1367 H         1 <0>         0.0456
     56 H21         5.7602   -1.1000    7.4588 H         1 <0>         0.0366
     57 H22         4.3590   -0.0627    7.7891 H         1 <0>         0.0474
     58 H23        -1.0105   -2.5120    0.6824 H         1 <0>         0.0800
     59 H24         0.6776   -1.9980    0.5976 H         1 <0>         0.0681
     60 H25         1.3460   -3.9033    2.0652 H         1 <0>         0.0740
     61 H26        -0.3175   -4.4733    2.1109 H         1 <0>         0.0631
     62 H27         0.0590   -3.2831   -1.4342 H         1 <0>         0.0970
     63 H28        -0.4054   -4.6631   -0.4257 H         1 <0>         0.0725
     64 H29         0.1003   -3.1895    4.1787 H         1 <0>         0.0839
     65 H30        -1.0906   -4.1840    5.4525 H         1 <0>         0.4531
     66 H31         4.0702   -5.3548   -0.8082 H         1 <0>         0.4798
     67 H32         3.7046   -6.3246   -2.2006 H         1 <0>         0.4881
     68 H33         0.2221   -5.3473   -2.4765 H         1 <0>         0.4801
     69 H34         1.4849   -6.3248   -3.1675 H         1 <0>         0.4806
     70 H35         2.3012   -3.9765    0.1776 H         1 <0>         0.4689
     71 H36        -1.4476   -1.1318    2.9219 H         1 <0>         0.4505
     72 H37         4.1809   -5.2504    3.4059 H         1 <0>         0.4443
@<TRIPOS>BOND
     1    1    2 ar
     2    1    3 ar
     3    2    4 ar
     4    3    6 ar
     5    4    5 ar
     6    4   10 1
     7    5    6 ar
     8    5   24 1
     9    6   35 1
    10    7   15 1
    11    7   30 2
    12    7   34 1
    13    8   23 1
    14    8   25 am
    15    8   31 2
    16    9   26 1
    17    9   27 1
    18    9   28 1
    19   10   16 1
    20   11   13 1
    21   11   17 1
    22   12   15 1
    23   12   17 1
    24   13   25 1
    25   14   16 1
    26   14   24 1
    27   15   25 1
    28   16   18 1
    29   17   19 1
    30   20   21 1
    31   20   22 1
    32   21   23 1
    33   22   28 1
    34   23   29 1
    35   29   35 1
    36   32   35 2
    37   33   35 2
    38    1   36 1
    39    2   37 1
    40    3   38 1
    41   10   39 1
    42   10   40 1
    43   11   41 1
    44   11   42 1
    45   12   43 1
    46   12   44 1
    47   13   45 1
    48   13   46 1
    49   14   47 1
    50   14   48 1
    51   15   49 1
    52   16   50 1
    53   17   51 1
    54   18   52 1
    55   18   53 1
    56   18   54 1
    57   19   55 1
    58   19   56 1
    59   19   57 1
    60   20   58 1
    61   20   59 1
    62   21   60 1
    63   21   61 1
    64   22   62 1
    65   22   63 1
    66   23   64 1
    67   24   65 1
    68   26   66 1
    69   26   67 1
    70   27   68 1
    71   27   69 1
    72   28   70 1
    73   29   71 1
    74   34   72 1
@<TRIPOS>MOLECULE
1dwc_ligand_111
   72    74     0     0     0
SMALL
USER_CHARGES

mmff94s_NoEstat = 77.62
@<TRIPOS>ATOM
      1 C1          6.6815    0.2584   -4.3460 C.ar      1 <0>        -0.1945
      2 C2          7.2694    1.0767   -3.3837 C.ar      1 <0>        -0.0294
      3 C3          6.2905   -1.0346   -4.0116 C.ar      1 <0>        -0.0143
      4 C4          7.4734    0.6037   -2.0794 C.ar      1 <0>        -0.1552
      5 C5          7.0542   -0.6937   -1.7254 C.ar      1 <0>         0.3076
      6 C6          6.4787   -1.5076   -2.7119 C.ar      1 <0>        -0.4908
      7 C7          2.8752    1.3115    1.1058 C.2       1 <0>         0.5994
      8 C8          2.9466   -1.3973   -0.6457 C.2       1 <0>         0.6462
      9 C9          2.3708   -7.0189   -3.0982 C.cat     1 <0>         0.6305
     10 C10         8.1045    1.5084   -1.0484 C.3       1 <0>        -0.0319
     11 C11         2.3641    2.0271   -2.0925 C.3       1 <0>        -0.0918
     12 C12         0.7649    1.6065   -0.1433 C.3       1 <0>        -0.0841
     13 C13         2.2856    0.5067   -2.1800 C.3       1 <0>         0.0870
     14 C14         7.6643   -0.3086    0.6304 C.3       1 <0>         0.2023
     15 C15         1.8211    0.5897    0.2827 C.3       1 <0>         0.0778
     16 C16         8.6818    0.7294    0.1447 C.3       1 <0>        -0.0746
     17 C17         1.2898    2.6259   -1.1701 C.3       1 <0>        -0.0681
     18 C18        10.0343    0.0904   -0.1902 C.3       1 <0>        -0.0944
     19 C19         0.1276    3.2108   -1.9746 C.3       1 <0>        -0.0918
     20 C20         2.0376   -4.1819   -1.4375 C.3       1 <0>        -0.1192
     21 C21         2.4114   -3.0756   -2.4306 C.3       1 <0>        -0.0916
     22 C22         1.0502   -5.1786   -2.0318 C.3       1 <0>         0.1883
     23 C23         3.4544   -2.1251   -1.8653 C.3       1 <0>         0.1952
     24 N1          7.2500   -1.1918   -0.4434 N.pl3     1 <0>        -0.7670
     25 N2          2.3949   -0.1309   -0.8598 N.am      1 <0>        -0.4509
     26 N3          2.8853   -7.6461   -4.2281 N.pl3     1 <0>        -0.8477
     27 N4          2.6272   -7.5635   -1.8446 N.pl3     1 <0>        -0.8633
     28 N5          1.6025   -5.8539   -3.1973 N.pl3     1 <0>        -0.7419
     29 N6          4.6097   -2.8934   -1.3678 N.pl3     1 <0>        -0.8860
     30 O1          2.6539    1.9546    2.1211 O.2       1 <0>        -0.5199
     31 O2          3.0377   -1.9312    0.4627 O.2       1 <0>        -0.6131
     32 O3          5.5181   -3.7497   -3.6206 O.2       1 <0>        -0.6576
     33 O4          7.0129   -3.7800   -1.5984 O.2       1 <0>        -0.6482
     34 O5          4.1045    1.1486    0.5584 O.3       1 <0>        -0.6303
     35 S1          5.9585   -3.1544   -2.3734 S.o2      1 <0>         1.5193
     36 H1          6.5316    0.6279   -5.3569 H         1 <0>         0.1426
     37 H2          7.5745    2.0846   -3.6547 H         1 <0>         0.1398
     38 H3          5.8369   -1.6833   -4.7545 H         1 <0>         0.1599
     39 H4          8.8950    2.1138   -1.5086 H         1 <0>         0.0574
     40 H5          7.3286    2.1962   -0.6886 H         1 <0>         0.0629
     41 H6          3.3521    2.2982   -1.6971 H         1 <0>         0.0614
     42 H7          2.3049    2.4652   -3.0956 H         1 <0>         0.0593
     43 H8         -0.0830    1.0592   -0.5778 H         1 <0>         0.0841
     44 H9          0.3696    2.1440    0.7282 H         1 <0>         0.0679
     45 H10         1.3285    0.1928   -2.6129 H         1 <0>         0.0826
     46 H11         3.0787    0.1346   -2.8358 H         1 <0>         0.0383
     47 H12         8.0876   -0.9053    1.4460 H         1 <0>         0.0556
     48 H13         6.7797    0.2011    1.0315 H         1 <0>         0.0415
     49 H14         1.3638   -0.1412    0.9605 H         1 <0>         0.0851
     50 H15         8.8692    1.4404    0.9588 H         1 <0>         0.0639
     51 H16         1.7477    3.4645   -0.6301 H         1 <0>         0.0584
     52 H17        10.2603    0.2043   -1.2546 H         1 <0>         0.0401
     53 H18        10.8360    0.5635    0.3848 H         1 <0>         0.0440
     54 H19        10.0241   -0.9776    0.0473 H         1 <0>         0.0459
     55 H20         0.4103    4.1714   -2.4154 H         1 <0>         0.0456
     56 H21        -0.1604    2.5322   -2.7831 H         1 <0>         0.0366
     57 H22        -0.7432    3.3698   -1.3317 H         1 <0>         0.0474
     58 H23         2.9446   -4.7113   -1.1217 H         1 <0>         0.0800
     59 H24         1.5893   -3.7381   -0.5411 H         1 <0>         0.0681
     60 H25         1.5058   -2.5277   -2.7226 H         1 <0>         0.0740
     61 H26         2.8104   -3.5289   -3.3468 H         1 <0>         0.0631
     62 H27         0.1202   -4.6842   -2.3301 H         1 <0>         0.0970
     63 H28         0.8030   -5.9463   -1.2916 H         1 <0>         0.0725
     64 H29         3.7902   -1.3903   -2.5956 H         1 <0>         0.0839
     65 H30         6.8641   -2.1005   -0.2179 H         1 <0>         0.4531
     66 H31         2.7222   -7.2854   -5.1644 H         1 <0>         0.4798
     67 H32         3.4426   -8.4934   -4.1472 H         1 <0>         0.4881
     68 H33         2.2663   -7.1307   -0.9979 H         1 <0>         0.4801
     69 H34         3.1835   -8.4089   -1.7415 H         1 <0>         0.4806
     70 H35         1.4314   -5.4779   -4.1311 H         1 <0>         0.4689
     71 H36         4.7395   -2.8961   -0.3505 H         1 <0>         0.4505
     72 H37         4.7996    1.6094    1.0749 H         1 <0>         0.4443
@<TRIPOS>BOND
     1    1    2 ar
     2    1    3 ar
     3    2    4 ar
     4    3    6 ar
     5    4    5 ar
     6    4   10 1
     7    5    6 ar
     8    5   24 1
     9    6   35 1
    10    7   15 1
    11    7   30 2
    12    7   34 1
    13    8   23 1
    14    8   25 am
    15    8   31 2
    16    9   26 1
    17    9   27 1
    18    9   28 1
    19   10   16 1
    20   11   13 1
    21   11   17 1
    22   12   15 1
    23   12   17 1
    24   13   25 1
    25   14   16 1
    26   14   24 1
    27   15   25 1
    28   16   18 1
    29   17   19 1
    30   20   21 1
    31   20   22 1
    32   21   23 1
    33   22   28 1
    34   23   29 1
    35   29   35 1
    36   32   35 2
    37   33   35 2
    38    1   36 1
    39    2   37 1
    40    3   38 1
    41   10   39 1
    42   10   40 1
    43   11   41 1
    44   11   42 1
    45   12   43 1
    46   12   44 1
    47   13   45 1
    48   13   46 1
    49   14   47 1
    50   14   48 1
    51   15   49 1
    52   16   50 1
    53   17   51 1
    54   18   52 1
    55   18   53 1
    56   18   54 1
    57   19   55 1
    58   19   56 1
    59   19   57 1
    60   20   58 1
    61   20   59 1
    62   21   60 1
    63   21   61 1
    64   22   62 1
    65   22   63 1
    66   23   64 1
    67   24   65 1
    68   26   66 1
    69   26   67 1
    70   27   68 1
    71   27   69 1
    72   28   70 1
    73   29   71 1
    74   34   72 1
@<TRIPOS>MOLECULE
1dwc_ligand_112
   72    74     0     0     0
SMALL
USER_CHARGES

mmff94s_NoEstat = 77.63
@<TRIPOS>ATOM
      1 C1          4.1725   -3.9457    0.5164 C.ar      1 <0>        -0.1945
      2 C2          5.2841   -3.7273    1.3275 C.ar      1 <0>        -0.0294
      3 C3          2.9716   -4.3618    1.0830 C.ar      1 <0>        -0.0143
      4 C4          5.2014   -3.9281    2.7130 C.ar      1 <0>        -0.1552
      5 C5          3.9817   -4.3215    3.2977 C.ar      1 <0>         0.3076
      6 C6          2.8785   -4.5513    2.4628 C.ar      1 <0>        -0.4908
      7 C7         -1.4628    0.1636    1.3526 C.2       1 <0>         0.5994
      8 C8          0.8654   -1.4427    3.2413 C.2       1 <0>         0.6462
      9 C9         -3.5174   -3.1325    0.3793 C.cat     1 <0>         0.6305
     10 C10         6.4147   -3.6782    3.5763 C.3       1 <0>        -0.0319
     11 C11         2.1918    0.8805    0.7195 C.3       1 <0>        -0.0918
     12 C12         0.2821   -0.3679   -0.3105 C.3       1 <0>        -0.0841
     13 C13         1.6113    0.6116    2.1020 C.3       1 <0>         0.0870
     14 C14         4.9375   -4.1225    5.5597 C.3       1 <0>         0.2023
     15 C15        -0.2506   -0.7126    1.0828 C.3       1 <0>         0.0778
     16 C16         6.3180   -4.3739    4.9439 C.3       1 <0>        -0.0746
     17 C17         1.0859    0.9390   -0.3376 C.3       1 <0>        -0.0681
     18 C18         6.6369   -5.8702    4.8481 C.3       1 <0>        -0.0944
     19 C19         1.6740    1.1859   -1.7255 C.3       1 <0>        -0.0918
     20 C20        -2.2331   -3.6727    3.9110 C.3       1 <0>        -0.1192
     21 C21        -1.3133   -2.4479    3.9716 C.3       1 <0>        -0.0916
     22 C22        -2.5436   -4.0884    2.4784 C.3       1 <0>         0.1883
     23 C23        -0.0078   -2.6730    3.2260 C.3       1 <0>         0.1952
     24 N1          3.8720   -4.5353    4.6659 N.pl3     1 <0>        -0.7670
     25 N2          0.7744   -0.5925    2.1333 N.am      1 <0>        -0.4509
     26 N3         -4.1320   -2.0919   -0.3093 N.pl3     1 <0>        -0.8477
     27 N4         -3.2282   -4.3140   -0.2948 N.pl3     1 <0>        -0.8633
     28 N5         -3.1850   -3.0147    1.7332 N.pl3     1 <0>        -0.7419
     29 N6          0.7961   -3.6905    3.9267 N.pl3     1 <0>        -0.8860
     30 O1         -2.4527    0.2312    0.6392 O.2       1 <0>        -0.5199
     31 O2          1.6103   -1.2468    4.2054 O.2       1 <0>        -0.6131
     32 O3          0.4439   -5.3314    1.9729 O.2       1 <0>        -0.6576
     33 O4          1.5968   -6.1309    4.0600 O.2       1 <0>        -0.6482
     34 O5         -1.2983    0.8686    2.4985 O.3       1 <0>        -0.6303
     35 S1          1.3247   -5.0804    3.0977 S.o2      1 <0>         1.5193
     36 H1          4.2441   -3.7946   -0.5573 H         1 <0>         0.1426
     37 H2          6.2192   -3.4050    0.8758 H         1 <0>         0.1398
     38 H3          2.1006   -4.5409    0.4604 H         1 <0>         0.1599
     39 H4          7.3229   -4.0105    3.0588 H         1 <0>         0.0574
     40 H5          6.4984   -2.5945    3.7281 H         1 <0>         0.0629
     41 H6          2.7495    1.8244    0.7335 H         1 <0>         0.0614
     42 H7          2.9066    0.0878    0.4640 H         1 <0>         0.0593
     43 H8          0.9336   -1.1873   -0.6438 H         1 <0>         0.0841
     44 H9         -0.5414   -0.3095   -1.0336 H         1 <0>         0.0679
     45 H10         2.4269    0.5309    2.8282 H         1 <0>         0.0826
     46 H11         0.9807    1.4504    2.4206 H         1 <0>         0.0383
     47 H12         4.8400   -4.6591    6.5101 H         1 <0>         0.0556
     48 H13         4.8208   -3.0544    5.7810 H         1 <0>         0.0415
     49 H14        -0.6325   -1.7382    1.0612 H         1 <0>         0.0851
     50 H15         7.0781   -3.9378    5.6038 H         1 <0>         0.0639
     51 H16         0.4173    1.7778   -0.1080 H         1 <0>         0.0584
     52 H17         6.7417   -6.1747    3.8024 H         1 <0>         0.0401
     53 H18         7.5719   -6.0982    5.3686 H         1 <0>         0.0440
     54 H19         5.8369   -6.4634    5.3010 H         1 <0>         0.0459
     55 H20         1.1081    0.6390   -2.4855 H         1 <0>         0.0456
     56 H21         1.6425    2.2512   -1.9725 H         1 <0>         0.0366
     57 H22         2.7156    0.8534   -1.7662 H         1 <0>         0.0474
     58 H23        -1.7621   -4.5101    4.4397 H         1 <0>         0.0800
     59 H24        -3.1768   -3.4520    4.4231 H         1 <0>         0.0681
     60 H25        -1.1204   -2.1894    5.0211 H         1 <0>         0.0740
     61 H26        -1.8263   -1.5854    3.5275 H         1 <0>         0.0631
     62 H27        -3.2009   -4.9634    2.4540 H         1 <0>         0.0970
     63 H28        -1.6174   -4.3461    1.9550 H         1 <0>         0.0725
     64 H29        -0.1638   -2.9774    2.1921 H         1 <0>         0.0839
     65 H30         2.9570   -4.7435    5.0468 H         1 <0>         0.4531
     66 H31        -4.3639   -1.2113    0.1425 H         1 <0>         0.4798
     67 H32        -4.3709   -2.1861   -1.2938 H         1 <0>         0.4881
     68 H33        -2.7795   -5.0946    0.1783 H         1 <0>         0.4801
     69 H34        -3.4571   -4.4281   -1.2793 H         1 <0>         0.4806
     70 H35        -3.4097   -2.1352    2.2008 H         1 <0>         0.4689
     71 H36         1.3354   -3.3564    4.7325 H         1 <0>         0.4505
     72 H37        -2.0705    1.4427    2.6896 H         1 <0>         0.4443
@<TRIPOS>BOND
     1    1    2 ar
     2    1    3 ar
     3    2    4 ar
     4    3    6 ar
     5    4    5 ar
     6    4   10 1
     7    5    6 ar
     8    5   24 1
     9    6   35 1
    10    7   15 1
    11    7   30 2
    12    7   34 1
    13    8   23 1
    14    8   25 am
    15    8   31 2
    16    9   26 1
    17    9   27 1
    18    9   28 1
    19   10   16 1
    20   11   13 1
    21   11   17 1
    22   12   15 1
    23   12   17 1
    24   13   25 1
    25   14   16 1
    26   14   24 1
    27   15   25 1
    28   16   18 1
    29   17   19 1
    30   20   21 1
    31   20   22 1
    32   21   23 1
    33   22   28 1
    34   23   29 1
    35   29   35 1
    36   32   35 2
    37   33   35 2
    38    1   36 1
    39    2   37 1
    40    3   38 1
    41   10   39 1
    42   10   40 1
    43   11   41 1
    44   11   42 1
    45   12   43 1
    46   12   44 1
    47   13   45 1
    48   13   46 1
    49   14   47 1
    50   14   48 1
    51   15   49 1
    52   16   50 1
    53   17   51 1
    54   18   52 1
    55   18   53 1
    56   18   54 1
    57   19   55 1
    58   19   56 1
    59   19   57 1
    60   20   58 1
    61   20   59 1
    62   21   60 1
    63   21   61 1
    64   22   62 1
    65   22   63 1
    66   23   64 1
    67   24   65 1
    68   26   66 1
    69   26   67 1
    70   27   68 1
    71   27   69 1
    72   28   70 1
    73   29   71 1
    74   34   72 1
@<TRIPOS>MOLECULE
1dwc_ligand_113
   72    74     0     0     0
SMALL
USER_CHARGES

mmff94s_NoEstat = 77.64
@<TRIPOS>ATOM
      1 C1          1.6845   -5.9778    0.1844 C.ar      1 <0>        -0.1945
      2 C2          0.6520   -5.4496    0.9566 C.ar      1 <0>        -0.0294
      3 C3          1.9606   -5.4374   -1.0681 C.ar      1 <0>        -0.0143
      4 C4         -0.1093   -4.3725    0.4806 C.ar      1 <0>        -0.1552
      5 C5          0.1450   -3.8386   -0.7984 C.ar      1 <0>         0.3076
      6 C6          1.1982   -4.3739   -1.5539 C.ar      1 <0>        -0.4908
      7 C7          2.4038   -0.4910    2.4030 C.2       1 <0>         0.5994
      8 C8          2.9466   -1.3973   -0.6457 C.2       1 <0>         0.6462
      9 C9          9.0792    0.7389   -1.8541 C.cat     1 <0>         0.6305
     10 C10        -1.2292   -3.8175    1.3278 C.3       1 <0>        -0.0319
     11 C11         3.9178   -3.4419    2.3602 C.3       1 <0>        -0.0918
     12 C12         4.8012   -1.0545    2.5913 C.3       1 <0>        -0.0841
     13 C13         4.0430   -3.0960    0.8803 C.3       1 <0>         0.0870
     14 C14        -1.7931   -2.3309   -0.6108 C.3       1 <0>         0.2023
     15 C15         3.6790   -0.7248    1.6100 C.3       1 <0>         0.0778
     16 C16        -1.5940   -2.3850    0.9075 C.3       1 <0>        -0.0746
     17 C17         4.6242   -2.4243    3.2705 C.3       1 <0>        -0.0681
     18 C18        -2.8431   -1.9049    1.6414 C.3       1 <0>        -0.0944
     19 C19         5.9763   -2.9527    3.7531 C.3       1 <0>        -0.0918
     20 C20         5.7415   -1.0578   -1.6401 C.3       1 <0>        -0.1192
     21 C21         4.5564   -1.3488   -2.5679 C.3       1 <0>        -0.0916
     22 C22         6.8115   -0.2136   -2.3213 C.3       1 <0>         0.1883
     23 C23         3.4544   -2.1251   -1.8653 C.3       1 <0>         0.1952
     24 N1         -0.5924   -2.7711   -1.2958 N.pl3     1 <0>        -0.7670
     25 N2          3.5192   -1.7560    0.5781 N.am      1 <0>        -0.4509
     26 N3         10.1464    0.9650   -0.9911 N.pl3     1 <0>        -0.8477
     27 N4          9.1456    1.2237   -3.1558 N.pl3     1 <0>        -0.8633
     28 N5          7.9432    0.0352   -1.4399 N.pl3     1 <0>        -0.7419
     29 N6          2.2741   -2.2179   -2.7432 N.pl3     1 <0>        -0.8860
     30 O1          1.5652   -1.3445    2.6513 O.2       1 <0>        -0.5199
     31 O2          2.0685   -0.5400   -0.7710 O.2       1 <0>        -0.6131
     32 O3          2.6686   -4.5798   -3.6918 O.2       1 <0>        -0.6576
     33 O4          0.3811   -3.5494   -3.8650 O.2       1 <0>        -0.6482
     34 O5          2.3173    0.8022    2.8000 O.3       1 <0>        -0.6303
     35 S1          1.6226   -3.7401   -3.1398 S.o2      1 <0>         1.5193
     36 H1          2.2754   -6.8081    0.5612 H         1 <0>         0.1426
     37 H2          0.4453   -5.8762    1.9353 H         1 <0>         0.1398
     38 H3          2.7663   -5.8367   -1.6758 H         1 <0>         0.1599
     39 H4         -2.0994   -4.4781    1.2245 H         1 <0>         0.0574
     40 H5         -0.9335   -3.8165    2.3842 H         1 <0>         0.0629
     41 H6          2.8510   -3.4591    2.6203 H         1 <0>         0.0614
     42 H7          4.2939   -4.4553    2.5428 H         1 <0>         0.0593
     43 H8          5.7524   -1.0436    2.0413 H         1 <0>         0.0841
     44 H9          4.8832   -0.2779    3.3625 H         1 <0>         0.0679
     45 H10         5.0934   -3.1114    0.5668 H         1 <0>         0.0826
     46 H11         3.5122   -3.8428    0.2819 H         1 <0>         0.0383
     47 H12        -2.6365   -2.9647   -0.9116 H         1 <0>         0.0556
     48 H13        -2.0279   -1.3080   -0.9257 H         1 <0>         0.0415
     49 H14         3.9015    0.2290    1.1168 H         1 <0>         0.0851
     50 H15        -0.7654   -1.7164    1.1777 H         1 <0>         0.0639
     51 H16         4.0032   -2.2947    4.1661 H         1 <0>         0.0584
     52 H17        -2.9604   -0.8225    1.5328 H         1 <0>         0.0401
     53 H18        -3.7366   -2.3905    1.2379 H         1 <0>         0.0440
     54 H19        -2.7758   -2.1387    2.7081 H         1 <0>         0.0459
     55 H20         5.8782   -3.4157    4.7396 H         1 <0>         0.0456
     56 H21         6.3665   -3.7022    3.0580 H         1 <0>         0.0366
     57 H22         6.7034   -2.1384    3.8257 H         1 <0>         0.0474
     58 H23         5.3842   -0.5386   -0.7426 H         1 <0>         0.0800
     59 H24         6.1956   -2.0004   -1.3135 H         1 <0>         0.0681
     60 H25         4.9119   -1.8947   -3.4517 H         1 <0>         0.0740
     61 H26         4.1396   -0.4017   -2.9334 H         1 <0>         0.0631
     62 H27         6.4083    0.7518   -2.6432 H         1 <0>         0.0970
     63 H28         7.1906   -0.7341   -3.2066 H         1 <0>         0.0725
     64 H29         3.7703   -3.1244   -1.5692 H         1 <0>         0.0839
     65 H30        -0.4235   -2.4715   -2.2481 H         1 <0>         0.4531
     66 H31        10.1413    0.6313   -0.0309 H         1 <0>         0.4798
     67 H32        10.9686    1.4783   -1.3002 H         1 <0>         0.4881
     68 H33         8.3832    1.0763   -3.8128 H         1 <0>         0.4801
     69 H34         9.9591    1.7377   -3.4855 H         1 <0>         0.4806
     70 H35         7.9238   -0.3084   -0.4785 H         1 <0>         0.4689
     71 H36         1.6613   -1.3957   -2.7560 H         1 <0>         0.4505
     72 H37         1.4988    0.9741    3.3126 H         1 <0>         0.4443
@<TRIPOS>BOND
     1    1    2 ar
     2    1    3 ar
     3    2    4 ar
     4    3    6 ar
     5    4    5 ar
     6    4   10 1
     7    5    6 ar
     8    5   24 1
     9    6   35 1
    10    7   15 1
    11    7   30 2
    12    7   34 1
    13    8   23 1
    14    8   25 am
    15    8   31 2
    16    9   26 1
    17    9   27 1
    18    9   28 1
    19   10   16 1
    20   11   13 1
    21   11   17 1
    22   12   15 1
    23   12   17 1
    24   13   25 1
    25   14   16 1
    26   14   24 1
    27   15   25 1
    28   16   18 1
    29   17   19 1
    30   20   21 1
    31   20   22 1
    32   21   23 1
    33   22   28 1
    34   23   29 1
    35   29   35 1
    36   32   35 2
    37   33   35 2
    38    1   36 1
    39    2   37 1
    40    3   38 1
    41   10   39 1
    42   10   40 1
    43   11   41 1
    44   11   42 1
    45   12   43 1
    46   12   44 1
    47   13   45 1
    48   13   46 1
    49   14   47 1
    50   14   48 1
    51   15   49 1
    52   16   50 1
    53   17   51 1
    54   18   52 1
    55   18   53 1
    56   18   54 1
    57   19   55 1
    58   19   56 1
    59   19   57 1
    60   20   58 1
    61   20   59 1
    62   21   60 1
    63   21   61 1
    64   22   62 1
    65   22   63 1
    66   23   64 1
    67   24   65 1
    68   26   66 1
    69   26   67 1
    70   27   68 1
    71   27   69 1
    72   28   70 1
    73   29   71 1
    74   34   72 1
@<TRIPOS>MOLECULE
1dwc_ligand_114
   72    74     0     0     0
SMALL
USER_CHARGES

mmff94s_NoEstat = 77.70
@<TRIPOS>ATOM
      1 C1          1.6845   -5.9778    0.1844 C.ar      1 <0>        -0.1945
      2 C2          0.6520   -5.4496    0.9566 C.ar      1 <0>        -0.0294
      3 C3          1.9606   -5.4374   -1.0681 C.ar      1 <0>        -0.0143
      4 C4         -0.1093   -4.3725    0.4806 C.ar      1 <0>        -0.1552
      5 C5          0.1450   -3.8386   -0.7984 C.ar      1 <0>         0.3076
      6 C6          1.1982   -4.3739   -1.5539 C.ar      1 <0>        -0.4908
      7 C7          1.8102   -1.5505    2.3702 C.2       1 <0>         0.5994
      8 C8          2.9466   -1.3973   -0.6457 C.2       1 <0>         0.6462
      9 C9          4.9528    0.1036   -6.2734 C.cat     1 <0>         0.6305
     10 C10        -1.2292   -3.8175    1.3278 C.3       1 <0>        -0.0319
     11 C11         4.4920   -3.4807    2.0801 C.3       1 <0>        -0.0918
     12 C12         4.1798   -1.0721    2.8769 C.3       1 <0>        -0.0841
     13 C13         4.5658   -2.7774    0.7291 C.3       1 <0>         0.0870
     14 C14        -1.7931   -2.3309   -0.6108 C.3       1 <0>         0.2023
     15 C15         3.1125   -1.0286    1.7861 C.3       1 <0>         0.0778
     16 C16        -1.5940   -2.3850    0.9075 C.3       1 <0>        -0.0746
     17 C17         4.5869   -2.5050    3.2643 C.3       1 <0>        -0.0681
     18 C18        -2.8431   -1.9049    1.6414 C.3       1 <0>        -0.0944
     19 C19         5.9882   -2.5079    3.8779 C.3       1 <0>        -0.0918
     20 C20         4.0666    0.0061   -3.0917 C.3       1 <0>        -0.1192
     21 C21         4.5564   -1.3488   -2.5679 C.3       1 <0>        -0.0916
     22 C22         5.1498    0.7503   -3.8628 C.3       1 <0>         0.1883
     23 C23         3.4544   -2.1251   -1.8653 C.3       1 <0>         0.1952
     24 N1         -0.5924   -2.7711   -1.2958 N.pl3     1 <0>        -0.7670
     25 N2          3.5192   -1.7560    0.5781 N.am      1 <0>        -0.4509
     26 N3          5.3941   -0.6210   -7.3756 N.pl3     1 <0>        -0.8477
     27 N4          3.8552    0.9464   -6.4114 N.pl3     1 <0>        -0.8633
     28 N5          5.5893    0.0019   -5.0317 N.pl3     1 <0>        -0.7419
     29 N6          2.2741   -2.2179   -2.7432 N.pl3     1 <0>        -0.8860
     30 O1          1.4308   -2.7108    2.3137 O.2       1 <0>        -0.5199
     31 O2          2.0685   -0.5400   -0.7710 O.2       1 <0>        -0.6131
     32 O3          2.6686   -4.5798   -3.6918 O.2       1 <0>        -0.6576
     33 O4          0.3811   -3.5494   -3.8650 O.2       1 <0>        -0.6482
     34 O5          1.1172   -0.5491    2.9655 O.3       1 <0>        -0.6303
     35 S1          1.6226   -3.7401   -3.1398 S.o2      1 <0>         1.5193
     36 H1          2.2754   -6.8081    0.5612 H         1 <0>         0.1426
     37 H2          0.4453   -5.8762    1.9353 H         1 <0>         0.1398
     38 H3          2.7663   -5.8367   -1.6758 H         1 <0>         0.1599
     39 H4         -2.0994   -4.4781    1.2245 H         1 <0>         0.0574
     40 H5         -0.9335   -3.8165    2.3842 H         1 <0>         0.0629
     41 H6          3.5311   -4.0088    2.1410 H         1 <0>         0.0614
     42 H7          5.2694   -4.2509    2.1463 H         1 <0>         0.0593
     43 H8          5.0641   -0.5305    2.5137 H         1 <0>         0.0841
     44 H9          3.8399   -0.5392    3.7741 H         1 <0>         0.0679
     45 H10         5.5312   -2.2723    0.6079 H         1 <0>         0.0826
     46 H11         4.4795   -3.5150   -0.0747 H         1 <0>         0.0383
     47 H12        -2.6365   -2.9647   -0.9116 H         1 <0>         0.0556
     48 H13        -2.0279   -1.3080   -0.9257 H         1 <0>         0.0415
     49 H14         2.9188    0.0160    1.5141 H         1 <0>         0.0851
     50 H15        -0.7654   -1.7164    1.1777 H         1 <0>         0.0639
     51 H16         3.9047   -2.8651    4.0450 H         1 <0>         0.0584
     52 H17        -2.9604   -0.8225    1.5328 H         1 <0>         0.0401
     53 H18        -3.7366   -2.3905    1.2379 H         1 <0>         0.0440
     54 H19        -2.7758   -2.1387    2.7081 H         1 <0>         0.0459
     55 H20         6.0310   -3.1862    4.7353 H         1 <0>         0.0456
     56 H21         6.7293   -2.8350    3.1425 H         1 <0>         0.0366
     57 H22         6.2606   -1.5045    4.2187 H         1 <0>         0.0474
     58 H23         3.1961   -0.1462   -3.7411 H         1 <0>         0.0800
     59 H24         3.7428    0.6319   -2.2522 H         1 <0>         0.0681
     60 H25         5.4094   -1.1917   -1.8946 H         1 <0>         0.0740
     61 H26         4.9285   -1.9502   -3.4070 H         1 <0>         0.0631
     62 H27         6.0226    0.9442   -3.2312 H         1 <0>         0.0970
     63 H28         4.7647    1.7133   -4.2128 H         1 <0>         0.0725
     64 H29         3.7703   -3.1244   -1.5692 H         1 <0>         0.0839
     65 H30        -0.4235   -2.4715   -2.2481 H         1 <0>         0.4531
     66 H31         6.1929   -1.2474   -7.3223 H         1 <0>         0.4798
     67 H32         4.9258   -0.5407   -8.2753 H         1 <0>         0.4881
     68 H33         3.5064    1.4907   -5.6261 H         1 <0>         0.4801
     69 H34         3.3717    1.0398   -7.3014 H         1 <0>         0.4806
     70 H35         6.3922   -0.6250   -4.9615 H         1 <0>         0.4689
     71 H36         1.6613   -1.3957   -2.7560 H         1 <0>         0.4505
     72 H37         0.2712   -0.8659    3.3478 H         1 <0>         0.4443
@<TRIPOS>BOND
     1    1    2 ar
     2    1    3 ar
     3    2    4 ar
     4    3    6 ar
     5    4    5 ar
     6    4   10 1
     7    5    6 ar
     8    5   24 1
     9    6   35 1
    10    7   15 1
    11    7   30 2
    12    7   34 1
    13    8   23 1
    14    8   25 am
    15    8   31 2
    16    9   26 1
    17    9   27 1
    18    9   28 1
    19   10   16 1
    20   11   13 1
    21   11   17 1
    22   12   15 1
    23   12   17 1
    24   13   25 1
    25   14   16 1
    26   14   24 1
    27   15   25 1
    28   16   18 1
    29   17   19 1
    30   20   21 1
    31   20   22 1
    32   21   23 1
    33   22   28 1
    34   23   29 1
    35   29   35 1
    36   32   35 2
    37   33   35 2
    38    1   36 1
    39    2   37 1
    40    3   38 1
    41   10   39 1
    42   10   40 1
    43   11   41 1
    44   11   42 1
    45   12   43 1
    46   12   44 1
    47   13   45 1
    48   13   46 1
    49   14   47 1
    50   14   48 1
    51   15   49 1
    52   16   50 1
    53   17   51 1
    54   18   52 1
    55   18   53 1
    56   18   54 1
    57   19   55 1
    58   19   56 1
    59   19   57 1
    60   20   58 1
    61   20   59 1
    62   21   60 1
    63   21   61 1
    64   22   62 1
    65   22   63 1
    66   23   64 1
    67   24   65 1
    68   26   66 1
    69   26   67 1
    70   27   68 1
    71   27   69 1
    72   28   70 1
    73   29   71 1
    74   34   72 1
@<TRIPOS>MOLECULE
1dwc_ligand_115
   72    74     0     0     0
SMALL
USER_CHARGES

mmff94s_NoEstat = 77.71
@<TRIPOS>ATOM
      1 C1          4.7857   -3.3854   -6.6747 C.ar      1 <0>        -0.1945
      2 C2          4.2835   -2.4050   -7.5279 C.ar      1 <0>        -0.0294
      3 C3          4.0861   -3.7255   -5.5206 C.ar      1 <0>        -0.0143
      4 C4          3.0736   -1.7606   -7.2327 C.ar      1 <0>        -0.1552
      5 C5          2.3740   -2.0785   -6.0516 C.ar      1 <0>         0.3076
      6 C6          2.8878   -3.0788   -5.2136 C.ar      1 <0>        -0.4908
      7 C7          0.5484   -0.8946    1.4535 C.2       1 <0>         0.5994
      8 C8          2.9466   -1.3973   -0.6457 C.2       1 <0>         0.6462
      9 C9          6.2822    2.1931   -1.8793 C.cat     1 <0>         0.6305
     10 C10         2.5481   -0.6954   -8.1649 C.3       1 <0>        -0.0319
     11 C11         1.0071   -4.1523    1.0299 C.3       1 <0>        -0.0918
     12 C12         1.8830   -2.5004    2.7729 C.3       1 <0>        -0.0841
     13 C13         2.2320   -3.6460    0.2757 C.3       1 <0>         0.0870
     14 C14         0.7263   -0.3013   -6.4881 C.3       1 <0>         0.2023
     15 C15         1.9200   -1.5343    1.5913 C.3       1 <0>         0.0778
     16 C16         1.0380   -0.4809   -7.9775 C.3       1 <0>        -0.0746
     17 C17         1.0079   -3.7392    2.5107 C.3       1 <0>        -0.0681
     18 C18         0.5551    0.7196   -8.7869 C.3       1 <0>        -0.0944
     19 C19         1.4463   -4.8953    3.4115 C.3       1 <0>        -0.0918
     20 C20         5.7415   -1.0578   -1.6401 C.3       1 <0>        -0.1192
     21 C21         4.5564   -1.3488   -2.5679 C.3       1 <0>        -0.0916
     22 C22         6.8115   -0.2136   -2.3213 C.3       1 <0>         0.1883
     23 C23         3.4544   -2.1251   -1.8653 C.3       1 <0>         0.1952
     24 N1          1.1726   -1.4571   -5.7336 N.pl3     1 <0>        -0.7670
     25 N2          2.3654   -2.1840    0.3531 N.am      1 <0>        -0.4509
     26 N3          5.7834    3.4227   -2.2967 N.pl3     1 <0>        -0.8477
     27 N4          6.7794    2.0667   -0.5867 N.pl3     1 <0>        -0.8633
     28 N5          6.2936    1.0837   -2.7315 N.pl3     1 <0>        -0.7419
     29 N6          2.2741   -2.2179   -2.7432 N.pl3     1 <0>        -0.8860
     30 O1         -0.0257   -0.2688    2.3322 O.2       1 <0>        -0.5199
     31 O2          3.0580   -0.1705   -0.5795 O.2       1 <0>        -0.6131
     32 O3          0.6499   -3.7277   -4.0534 O.2       1 <0>        -0.6576
     33 O4          2.8074   -4.6931   -3.1946 O.2       1 <0>        -0.6482
     34 O5          0.0400   -1.1141    0.2163 O.3       1 <0>        -0.6303
     35 S1          2.0591   -3.5786   -3.7438 S.o2      1 <0>         1.5193
     36 H1          5.7203   -3.8862   -6.9120 H         1 <0>         0.1426
     37 H2          4.8354   -2.1479   -8.4289 H         1 <0>         0.1398
     38 H3          4.4644   -4.4919   -4.8517 H         1 <0>         0.1599
     39 H4          3.0928    0.2363   -7.9655 H         1 <0>         0.0574
     40 H5          2.7429   -0.9806   -9.2061 H         1 <0>         0.0629
     41 H6          0.1116   -3.7326    0.5525 H         1 <0>         0.0614
     42 H7          0.9264   -5.2409    0.9288 H         1 <0>         0.0593
     43 H8          2.9117   -2.8226    2.9853 H         1 <0>         0.0841
     44 H9          1.5267   -1.9929    3.6785 H         1 <0>         0.0679
     45 H10         3.1493   -4.0774    0.6933 H         1 <0>         0.0826
     46 H11         2.1726   -3.9558   -0.7722 H         1 <0>         0.0383
     47 H12         1.2164    0.5993   -6.0977 H         1 <0>         0.0556
     48 H13        -0.3518   -0.1738   -6.3395 H         1 <0>         0.0415
     49 H14         2.6095   -0.7128    1.8202 H         1 <0>         0.0851
     50 H15         0.5073   -1.3704   -8.3432 H         1 <0>         0.0639
     51 H16        -0.0273   -3.5034    2.7887 H         1 <0>         0.0584
     52 H17        -0.5372    0.7259   -8.8506 H         1 <0>         0.0401
     53 H18         0.8784    1.6541   -8.3188 H         1 <0>         0.0440
     54 H19         0.9591    0.6854   -9.8032 H         1 <0>         0.0459
     55 H20         0.5753   -5.4296    3.8024 H         1 <0>         0.0456
     56 H21         2.0638   -5.6051    2.8530 H         1 <0>         0.0366
     57 H22         2.0303   -4.5225    4.2583 H         1 <0>         0.0474
     58 H23         5.3842   -0.5386   -0.7426 H         1 <0>         0.0800
     59 H24         6.1956   -2.0004   -1.3135 H         1 <0>         0.0681
     60 H25         4.9119   -1.8947   -3.4517 H         1 <0>         0.0740
     61 H26         4.1396   -0.4017   -2.9334 H         1 <0>         0.0631
     62 H27         7.2104   -0.7195   -3.2063 H         1 <0>         0.0970
     63 H28         7.6418   -0.0344   -1.6309 H         1 <0>         0.0725
     64 H29         3.7703   -3.1244   -1.5692 H         1 <0>         0.0839
     65 H30         0.7458   -1.6637   -4.8389 H         1 <0>         0.4531
     66 H31         5.4119    3.5624   -3.2326 H         1 <0>         0.4798
     67 H32         5.7794    4.2246   -1.6707 H         1 <0>         0.4881
     68 H33         7.1515    1.1824   -0.2491 H         1 <0>         0.4801
     69 H34         6.7829    2.8555    0.0556 H         1 <0>         0.4806
     70 H35         5.9218    1.2075   -3.6745 H         1 <0>         0.4689
     71 H36         1.4502   -1.6870   -2.4414 H         1 <0>         0.4505
     72 H37        -0.8473   -0.7100    0.1079 H         1 <0>         0.4443
@<TRIPOS>BOND
     1    1    2 ar
     2    1    3 ar
     3    2    4 ar
     4    3    6 ar
     5    4    5 ar
     6    4   10 1
     7    5    6 ar
     8    5   24 1
     9    6   35 1
    10    7   15 1
    11    7   30 2
    12    7   34 1
    13    8   23 1
    14    8   25 am
    15    8   31 2
    16    9   26 1
    17    9   27 1
    18    9   28 1
    19   10   16 1
    20   11   13 1
    21   11   17 1
    22   12   15 1
    23   12   17 1
    24   13   25 1
    25   14   16 1
    26   14   24 1
    27   15   25 1
    28   16   18 1
    29   17   19 1
    30   20   21 1
    31   20   22 1
    32   21   23 1
    33   22   28 1
    34   23   29 1
    35   29   35 1
    36   32   35 2
    37   33   35 2
    38    1   36 1
    39    2   37 1
    40    3   38 1
    41   10   39 1
    42   10   40 1
    43   11   41 1
    44   11   42 1
    45   12   43 1
    46   12   44 1
    47   13   45 1
    48   13   46 1
    49   14   47 1
    50   14   48 1
    51   15   49 1
    52   16   50 1
    53   17   51 1
    54   18   52 1
    55   18   53 1
    56   18   54 1
    57   19   55 1
    58   19   56 1
    59   19   57 1
    60   20   58 1
    61   20   59 1
    62   21   60 1
    63   21   61 1
    64   22   62 1
    65   22   63 1
    66   23   64 1
    67   24   65 1
    68   26   66 1
    69   26   67 1
    70   27   68 1
    71   27   69 1
    72   28   70 1
    73   29   71 1
    74   34   72 1
@<TRIPOS>MOLECULE
1dwc_ligand_116
   72    74     0     0     0
SMALL
USER_CHARGES

mmff94s_NoEstat = 77.73
@<TRIPOS>ATOM
      1 C1          6.3583   -3.8511   -5.7393 C.ar      1 <0>        -0.1945
      2 C2          6.4340   -5.2363   -5.6108 C.ar      1 <0>        -0.0294
      3 C3          6.2774   -3.0526   -4.6025 C.ar      1 <0>        -0.0143
      4 C4          6.4254   -5.8324   -4.3415 C.ar      1 <0>        -0.1552
      5 C5          6.3727   -5.0296   -3.1851 C.ar      1 <0>         0.3076
      6 C6          6.2812   -3.6382   -3.3354 C.ar      1 <0>        -0.4908
      7 C7          2.8752    1.3115    1.1058 C.2       1 <0>         0.5994
      8 C8          2.9466   -1.3973   -0.6457 C.2       1 <0>         0.6462
      9 C9          1.5211   -6.2682   -6.2170 C.cat     1 <0>         0.6305
     10 C10         6.5165   -7.3348   -4.2226 C.3       1 <0>        -0.0319
     11 C11         2.3641    2.0271   -2.0925 C.3       1 <0>        -0.0918
     12 C12         0.7649    1.6065   -0.1433 C.3       1 <0>        -0.0841
     13 C13         2.2856    0.5067   -2.1800 C.3       1 <0>         0.0870
     14 C14         6.6392   -7.0033   -1.7349 C.3       1 <0>         0.2023
     15 C15         1.8211    0.5897    0.2827 C.3       1 <0>         0.0778
     16 C16         6.0288   -7.8484   -2.8581 C.3       1 <0>        -0.0746
     17 C17         1.2898    2.6259   -1.1701 C.3       1 <0>        -0.0681
     18 C18         4.4985   -7.8884   -2.7758 C.3       1 <0>        -0.0944
     19 C19         0.1276    3.2108   -1.9746 C.3       1 <0>        -0.0918
     20 C20         2.8965   -3.7759   -3.7050 C.3       1 <0>        -0.1192
     21 C21         2.4114   -3.0756   -2.4306 C.3       1 <0>        -0.0916
     22 C22         1.8232   -4.6695   -4.3142 C.3       1 <0>         0.1883
     23 C23         3.4544   -2.1251   -1.8653 C.3       1 <0>         0.1952
     24 N1          6.3551   -5.5922   -1.9150 N.pl3     1 <0>        -0.7670
     25 N2          2.3949   -0.1309   -0.8598 N.am      1 <0>        -0.4509
     26 N3          2.0025   -6.9024   -7.3576 N.pl3     1 <0>        -0.8477
     27 N4          0.2351   -6.5562   -5.7729 N.pl3     1 <0>        -0.8633
     28 N5          2.3028   -5.3489   -5.5092 N.pl3     1 <0>        -0.7419
     29 N6          4.6097   -2.8934   -1.3678 N.pl3     1 <0>        -0.8860
     30 O1          2.6539    1.9546    2.1211 O.2       1 <0>        -0.5199
     31 O2          3.0377   -1.9312    0.4627 O.2       1 <0>        -0.6131
     32 O3          7.1528   -2.9869   -0.9708 O.2       1 <0>        -0.6576
     33 O4          6.2050   -1.2028   -2.4684 O.2       1 <0>        -0.6482
     34 O5          4.1045    1.1486    0.5584 O.3       1 <0>        -0.6303
     35 S1          6.1736   -2.5573   -1.9508 S.o2      1 <0>         1.5193
     36 H1          6.3590   -3.3950   -6.7257 H         1 <0>         0.1426
     37 H2          6.4940   -5.8526   -6.5047 H         1 <0>         0.1398
     38 H3          6.2119   -1.9726   -4.6904 H         1 <0>         0.1599
     39 H4          5.9394   -7.8139   -5.0228 H         1 <0>         0.0574
     40 H5          7.5683   -7.6169   -4.3590 H         1 <0>         0.0629
     41 H6          3.3521    2.2982   -1.6971 H         1 <0>         0.0614
     42 H7          2.3049    2.4652   -3.0956 H         1 <0>         0.0593
     43 H8         -0.0830    1.0592   -0.5778 H         1 <0>         0.0841
     44 H9          0.3696    2.1440    0.7282 H         1 <0>         0.0679
     45 H10         1.3285    0.1928   -2.6129 H         1 <0>         0.0826
     46 H11         3.0787    0.1346   -2.8358 H         1 <0>         0.0383
     47 H12         6.2551   -7.3277   -0.7613 H         1 <0>         0.0556
     48 H13         7.7266   -7.1463   -1.7144 H         1 <0>         0.0415
     49 H14         1.3638   -0.1412    0.9605 H         1 <0>         0.0851
     50 H15         6.3715   -8.8838   -2.7401 H         1 <0>         0.0639
     51 H16         1.7477    3.4645   -0.6301 H         1 <0>         0.0584
     52 H17         4.0538   -7.4183   -3.6581 H         1 <0>         0.0401
     53 H18         4.1433   -8.9217   -2.7201 H         1 <0>         0.0440
     54 H19         4.1474   -7.3549   -1.8875 H         1 <0>         0.0459
     55 H20         0.4103    4.1714   -2.4154 H         1 <0>         0.0456
     56 H21        -0.1604    2.5322   -2.7831 H         1 <0>         0.0366
     57 H22        -0.7432    3.3698   -1.3317 H         1 <0>         0.0474
     58 H23         3.2051   -3.0234   -4.4407 H         1 <0>         0.0800
     59 H24         3.7751   -4.3904   -3.4776 H         1 <0>         0.0681
     60 H25         2.1309   -3.8309   -1.6847 H         1 <0>         0.0740
     61 H26         1.5011   -2.5046   -2.6534 H         1 <0>         0.0631
     62 H27         0.9326   -4.0920   -4.5817 H         1 <0>         0.0970
     63 H28         1.5245   -5.4384   -3.5946 H         1 <0>         0.0725
     64 H29         3.7902   -1.3903   -2.5956 H         1 <0>         0.0839
     65 H30         6.3928   -4.9720   -1.1154 H         1 <0>         0.4531
     66 H31         2.9348   -6.7217   -7.7201 H         1 <0>         0.4798
     67 H32         1.4271   -7.5693   -7.8669 H         1 <0>         0.4881
     68 H33        -0.1482   -6.1107   -4.9428 H         1 <0>         0.4801
     69 H34        -0.3558   -7.2211   -6.2664 H         1 <0>         0.4806
     70 H35         3.2427   -5.1582   -5.8596 H         1 <0>         0.4689
     71 H36         4.5044   -3.3037   -0.4338 H         1 <0>         0.4505
     72 H37         4.7996    1.6094    1.0749 H         1 <0>         0.4443
@<TRIPOS>BOND
     1    1    2 ar
     2    1    3 ar
     3    2    4 ar
     4    3    6 ar
     5    4    5 ar
     6    4   10 1
     7    5    6 ar
     8    5   24 1
     9    6   35 1
    10    7   15 1
    11    7   30 2
    12    7   34 1
    13    8   23 1
    14    8   25 am
    15    8   31 2
    16    9   26 1
    17    9   27 1
    18    9   28 1
    19   10   16 1
    20   11   13 1
    21   11   17 1
    22   12   15 1
    23   12   17 1
    24   13   25 1
    25   14   16 1
    26   14   24 1
    27   15   25 1
    28   16   18 1
    29   17   19 1
    30   20   21 1
    31   20   22 1
    32   21   23 1
    33   22   28 1
    34   23   29 1
    35   29   35 1
    36   32   35 2
    37   33   35 2
    38    1   36 1
    39    2   37 1
    40    3   38 1
    41   10   39 1
    42   10   40 1
    43   11   41 1
    44   11   42 1
    45   12   43 1
    46   12   44 1
    47   13   45 1
    48   13   46 1
    49   14   47 1
    50   14   48 1
    51   15   49 1
    52   16   50 1
    53   17   51 1
    54   18   52 1
    55   18   53 1
    56   18   54 1
    57   19   55 1
    58   19   56 1
    59   19   57 1
    60   20   58 1
    61   20   59 1
    62   21   60 1
    63   21   61 1
    64   22   62 1
    65   22   63 1
    66   23   64 1
    67   24   65 1
    68   26   66 1
    69   26   67 1
    70   27   68 1
    71   27   69 1
    72   28   70 1
    73   29   71 1
    74   34   72 1
@<TRIPOS>MOLECULE
1dwc_ligand_117
   72    74     0     0     0
SMALL
USER_CHARGES

mmff94s_NoEstat = 77.74
@<TRIPOS>ATOM
      1 C1         -1.4072   -6.2841    0.5334 C.ar      1 <0>        -0.1945
      2 C2         -0.3050   -6.5010   -0.2908 C.ar      1 <0>        -0.0294
      3 C3         -1.2178   -5.9155    1.8618 C.ar      1 <0>        -0.0143
      4 C4          0.9961   -6.3538    0.2114 C.ar      1 <0>        -0.1552
      5 C5          1.1959   -5.9530    1.5470 C.ar      1 <0>         0.3076
      6 C6          0.0742   -5.7546    2.3651 C.ar      1 <0>        -0.4908
      7 C7          0.0474   -1.6003   -0.0563 C.2       1 <0>         0.5994
      8 C8          0.8654   -1.4427    3.2413 C.2       1 <0>         0.6462
      9 C9         -3.9874   -0.8867    6.6209 C.cat     1 <0>         0.6305
     10 C10         2.1776   -6.5853   -0.6996 C.3       1 <0>        -0.0319
     11 C11         2.7802    0.7752    1.0208 C.3       1 <0>        -0.0918
     12 C12         2.5085   -1.4277   -0.1368 C.3       1 <0>        -0.0841
     13 C13         1.5404    0.4804    1.8554 C.3       1 <0>         0.0870
     14 C14         3.6317   -5.8205    1.2015 C.3       1 <0>         0.2023
     15 C15         1.3165   -1.7600    0.7646 C.3       1 <0>         0.0778
     16 C16         3.4776   -6.8504    0.0772 C.3       1 <0>        -0.0746
     17 C17         2.7020    0.0809   -0.3413 C.3       1 <0>        -0.0681
     18 C18         3.5447   -8.2877    0.6061 C.3       1 <0>        -0.0944
     19 C19         3.9570    0.3602   -1.1659 C.3       1 <0>        -0.0918
     20 C20        -2.1115   -1.2711    3.3990 C.3       1 <0>        -0.1192
     21 C21        -1.3133   -2.4479    3.9716 C.3       1 <0>        -0.0916
     22 C22        -3.3821   -0.9970    4.1941 C.3       1 <0>         0.1883
     23 C23        -0.0078   -2.6730    3.2260 C.3       1 <0>         0.1952
     24 N1          2.4729   -5.8065    2.0741 N.pl3     1 <0>        -0.7670
     25 N2          1.2915   -0.9578    1.9994 N.am      1 <0>        -0.4509
     26 N3         -3.6805   -0.5461    7.9341 N.pl3     1 <0>        -0.8477
     27 N4         -5.2158   -1.4764    6.3429 N.pl3     1 <0>        -0.8633
     28 N5         -3.0875   -0.6486    5.5765 N.pl3     1 <0>        -0.7419
     29 N6          0.7961   -3.6905    3.9267 N.pl3     1 <0>        -0.8860
     30 O1         -0.6384   -0.5898   -0.0988 O.2       1 <0>        -0.5199
     31 O2          1.1650   -0.9321    4.3240 O.2       1 <0>        -0.6131
     32 O3         -1.1034   -5.2783    4.6370 O.2       1 <0>        -0.6576
     33 O4          1.2668   -6.1189    4.6309 O.2       1 <0>        -0.6482
     34 O5         -0.2271   -2.7383   -0.7395 O.3       1 <0>        -0.6303
     35 S1          0.2254   -5.2894    4.0556 S.o2      1 <0>         1.5193
     36 H1         -2.4130   -6.4058    0.1405 H         1 <0>         0.1426
     37 H2         -0.4624   -6.7916   -1.3268 H         1 <0>         0.1398
     38 H3         -2.0688   -5.7496    2.5150 H         1 <0>         0.1599
     39 H4          1.9762   -7.4254   -1.3755 H         1 <0>         0.0574
     40 H5          2.3035   -5.6869   -1.3173 H         1 <0>         0.0629
     41 H6          2.8818    1.8586    0.8858 H         1 <0>         0.0614
     42 H7          3.6725    0.4327    1.5603 H         1 <0>         0.0593
     43 H8          3.4165   -1.8382    0.3259 H         1 <0>         0.0841
     44 H9          2.4035   -1.9216   -1.1111 H         1 <0>         0.0679
     45 H10         1.6443    0.9520    2.8381 H         1 <0>         0.0826
     46 H11         0.6509    0.9155    1.3839 H         1 <0>         0.0383
     47 H12         4.5279   -6.0341    1.7945 H         1 <0>         0.0556
     48 H13         3.7631   -4.8203    0.7705 H         1 <0>         0.0415
     49 H14         1.3647   -2.8230    1.0210 H         1 <0>         0.0851
     50 H15         4.3197   -6.7370   -0.6165 H         1 <0>         0.0639
     51 H16         1.8454    0.4816   -0.8972 H         1 <0>         0.0584
     52 H17         2.5943   -8.8034    0.4393 H         1 <0>         0.0401
     53 H18         4.3347   -8.8481    0.0972 H         1 <0>         0.0440
     54 H19         3.7555   -8.2927    1.6797 H         1 <0>         0.0459
     55 H20         4.2296   -0.5171   -1.7602 H         1 <0>         0.0456
     56 H21         3.7904    1.1997   -1.8474 H         1 <0>         0.0366
     57 H22         4.7987    0.6086   -0.5125 H         1 <0>         0.0474
     58 H23        -1.4838   -0.3719    3.3933 H         1 <0>         0.0800
     59 H24        -2.3885   -1.4831    2.3599 H         1 <0>         0.0681
     60 H25        -1.9335   -3.3536    3.9489 H         1 <0>         0.0740
     61 H26        -1.0849   -2.2531    5.0271 H         1 <0>         0.0631
     62 H27        -4.0449   -1.8681    4.1933 H         1 <0>         0.0970
     63 H28        -3.9265   -0.1572    3.7507 H         1 <0>         0.0725
     64 H29        -0.1638   -2.9774    2.1921 H         1 <0>         0.0839
     65 H30         2.5644   -5.4443    3.0154 H         1 <0>         0.4531
     66 H31        -2.7945   -0.1152    8.1846 H         1 <0>         0.4798
     67 H32        -4.3405   -0.7234    8.6878 H         1 <0>         0.4881
     68 H33        -5.4724   -1.7381    5.3941 H         1 <0>         0.4801
     69 H34        -5.8906   -1.6606    7.0814 H         1 <0>         0.4806
     70 H35        -2.1937   -0.2143    5.8119 H         1 <0>         0.4689
     71 H36         1.8068   -3.5190    3.9555 H         1 <0>         0.4505
     72 H37        -1.0450   -2.6560   -1.2749 H         1 <0>         0.4443
@<TRIPOS>BOND
     1    1    2 ar
     2    1    3 ar
     3    2    4 ar
     4    3    6 ar
     5    4    5 ar
     6    4   10 1
     7    5    6 ar
     8    5   24 1
     9    6   35 1
    10    7   15 1
    11    7   30 2
    12    7   34 1
    13    8   23 1
    14    8   25 am
    15    8   31 2
    16    9   26 1
    17    9   27 1
    18    9   28 1
    19   10   16 1
    20   11   13 1
    21   11   17 1
    22   12   15 1
    23   12   17 1
    24   13   25 1
    25   14   16 1
    26   14   24 1
    27   15   25 1
    28   16   18 1
    29   17   19 1
    30   20   21 1
    31   20   22 1
    32   21   23 1
    33   22   28 1
    34   23   29 1
    35   29   35 1
    36   32   35 2
    37   33   35 2
    38    1   36 1
    39    2   37 1
    40    3   38 1
    41   10   39 1
    42   10   40 1
    43   11   41 1
    44   11   42 1
    45   12   43 1
    46   12   44 1
    47   13   45 1
    48   13   46 1
    49   14   47 1
    50   14   48 1
    51   15   49 1
    52   16   50 1
    53   17   51 1
    54   18   52 1
    55   18   53 1
    56   18   54 1
    57   19   55 1
    58   19   56 1
    59   19   57 1
    60   20   58 1
    61   20   59 1
    62   21   60 1
    63   21   61 1
    64   22   62 1
    65   22   63 1
    66   23   64 1
    67   24   65 1
    68   26   66 1
    69   26   67 1
    70   27   68 1
    71   27   69 1
    72   28   70 1
    73   29   71 1
    74   34   72 1
@<TRIPOS>MOLECULE
1dwc_ligand_118
   72    74     0     0     0
SMALL
USER_CHARGES

mmff94s_NoEstat = 77.75
@<TRIPOS>ATOM
      1 C1          3.0864   -6.8132   -1.6121 C.ar      1 <0>        -0.1945
      2 C2          2.0235   -6.9752   -0.7260 C.ar      1 <0>        -0.0294
      3 C3          3.0725   -5.7656   -2.5283 C.ar      1 <0>        -0.0143
      4 C4          0.9399   -6.0855   -0.7488 C.ar      1 <0>        -0.1552
      5 C5          0.9045   -5.0397   -1.6925 C.ar      1 <0>         0.3076
      6 C6          1.9909   -4.8841   -2.5656 C.ar      1 <0>        -0.4908
      7 C7          2.4038   -0.4910    2.4030 C.2       1 <0>         0.5994
      8 C8          2.9466   -1.3973   -0.6457 C.2       1 <0>         0.6462
      9 C9          9.0792    0.7389   -1.8541 C.cat     1 <0>         0.6305
     10 C10        -0.2069   -6.2806    0.2139 C.3       1 <0>        -0.0319
     11 C11         3.9178   -3.4419    2.3602 C.3       1 <0>        -0.0918
     12 C12         4.8012   -1.0545    2.5913 C.3       1 <0>        -0.0841
     13 C13         4.0430   -3.0960    0.8803 C.3       1 <0>         0.0870
     14 C14        -1.3613   -4.3977   -0.9727 C.3       1 <0>         0.2023
     15 C15         3.6790   -0.7248    1.6100 C.3       1 <0>         0.0778
     16 C16        -1.0112   -4.9842    0.3988 C.3       1 <0>        -0.0746
     17 C17         4.6242   -2.4243    3.2705 C.3       1 <0>        -0.0681
     18 C18        -2.2700   -5.2387    1.2234 C.3       1 <0>        -0.0944
     19 C19         5.9763   -2.9527    3.7531 C.3       1 <0>        -0.0918
     20 C20         5.7415   -1.0578   -1.6401 C.3       1 <0>        -0.1192
     21 C21         4.5564   -1.3488   -2.5679 C.3       1 <0>        -0.0916
     22 C22         6.8115   -0.2136   -2.3213 C.3       1 <0>         0.1883
     23 C23         3.4544   -2.1251   -1.8653 C.3       1 <0>         0.1952
     24 N1         -0.1556   -4.1426   -1.7381 N.pl3     1 <0>        -0.7670
     25 N2          3.5192   -1.7560    0.5781 N.am      1 <0>        -0.4509
     26 N3         10.1464    0.9650   -0.9911 N.pl3     1 <0>        -0.8477
     27 N4          9.1456    1.2237   -3.1558 N.pl3     1 <0>        -0.8633
     28 N5          7.9432    0.0352   -1.4399 N.pl3     1 <0>        -0.7419
     29 N6          2.2741   -2.2179   -2.7432 N.pl3     1 <0>        -0.8860
     30 O1          2.2729    0.3351    3.2940 O.2       1 <0>        -0.5199
     31 O2          2.0685   -0.5400   -0.7710 O.2       1 <0>        -0.6131
     32 O3          3.2466   -3.7694   -4.5546 O.2       1 <0>        -0.6576
     33 O4          0.7526   -3.5048   -4.3692 O.2       1 <0>        -0.6482
     34 O5          1.4223   -1.3294    1.9894 O.3       1 <0>        -0.6303
     35 S1          2.0591   -3.5786   -3.7438 S.o2      1 <0>         1.5193
     36 H1          3.9266   -7.5016   -1.5854 H         1 <0>         0.1426
     37 H2          2.0443   -7.7948   -0.0116 H         1 <0>         0.1398
     38 H3          3.8977   -5.6260   -3.2193 H         1 <0>         0.1599
     39 H4         -0.8529   -7.0772   -0.1766 H         1 <0>         0.0574
     40 H5          0.1751   -6.6074    1.1889 H         1 <0>         0.0629
     41 H6          2.8510   -3.4591    2.6203 H         1 <0>         0.0614
     42 H7          4.2939   -4.4553    2.5428 H         1 <0>         0.0593
     43 H8          5.7524   -1.0436    2.0413 H         1 <0>         0.0841
     44 H9          4.8832   -0.2779    3.3625 H         1 <0>         0.0679
     45 H10         5.0934   -3.1114    0.5668 H         1 <0>         0.0826
     46 H11         3.5122   -3.8428    0.2819 H         1 <0>         0.0383
     47 H12        -2.0084   -5.0849   -1.5319 H         1 <0>         0.0556
     48 H13        -1.9126   -3.4583   -0.8533 H         1 <0>         0.0415
     49 H14         3.9015    0.2290    1.1168 H         1 <0>         0.0851
     50 H15        -0.3913   -4.2593    0.9436 H         1 <0>         0.0639
     51 H16         4.0032   -2.2947    4.1661 H         1 <0>         0.0584
     52 H17        -2.7070   -4.2936    1.5593 H         1 <0>         0.0401
     53 H18        -3.0178   -5.7721    0.6290 H         1 <0>         0.0440
     54 H19        -2.0361   -5.8426    2.1053 H         1 <0>         0.0459
     55 H20         5.8782   -3.4157    4.7396 H         1 <0>         0.0456
     56 H21         6.3665   -3.7022    3.0580 H         1 <0>         0.0366
     57 H22         6.7034   -2.1384    3.8257 H         1 <0>         0.0474
     58 H23         5.3842   -0.5386   -0.7426 H         1 <0>         0.0800
     59 H24         6.1956   -2.0004   -1.3135 H         1 <0>         0.0681
     60 H25         4.9119   -1.8947   -3.4517 H         1 <0>         0.0740
     61 H26         4.1396   -0.4017   -2.9334 H         1 <0>         0.0631
     62 H27         6.4083    0.7518   -2.6432 H         1 <0>         0.0970
     63 H28         7.1906   -0.7341   -3.2066 H         1 <0>         0.0725
     64 H29         3.7703   -3.1244   -1.5692 H         1 <0>         0.0839
     65 H30        -0.1728   -3.4550   -2.4811 H         1 <0>         0.4531
     66 H31        10.1413    0.6313   -0.0309 H         1 <0>         0.4798
     67 H32        10.9686    1.4783   -1.3002 H         1 <0>         0.4881
     68 H33         8.3832    1.0763   -3.8128 H         1 <0>         0.4801
     69 H34         9.9591    1.7377   -3.4855 H         1 <0>         0.4806
     70 H35         7.9238   -0.3084   -0.4785 H         1 <0>         0.4689
     71 H36         1.4502   -1.6870   -2.4414 H         1 <0>         0.4505
     72 H37         0.5902   -1.1952    2.4913 H         1 <0>         0.4443
@<TRIPOS>BOND
     1    1    2 ar
     2    1    3 ar
     3    2    4 ar
     4    3    6 ar
     5    4    5 ar
     6    4   10 1
     7    5    6 ar
     8    5   24 1
     9    6   35 1
    10    7   15 1
    11    7   30 2
    12    7   34 1
    13    8   23 1
    14    8   25 am
    15    8   31 2
    16    9   26 1
    17    9   27 1
    18    9   28 1
    19   10   16 1
    20   11   13 1
    21   11   17 1
    22   12   15 1
    23   12   17 1
    24   13   25 1
    25   14   16 1
    26   14   24 1
    27   15   25 1
    28   16   18 1
    29   17   19 1
    30   20   21 1
    31   20   22 1
    32   21   23 1
    33   22   28 1
    34   23   29 1
    35   29   35 1
    36   32   35 2
    37   33   35 2
    38    1   36 1
    39    2   37 1
    40    3   38 1
    41   10   39 1
    42   10   40 1
    43   11   41 1
    44   11   42 1
    45   12   43 1
    46   12   44 1
    47   13   45 1
    48   13   46 1
    49   14   47 1
    50   14   48 1
    51   15   49 1
    52   16   50 1
    53   17   51 1
    54   18   52 1
    55   18   53 1
    56   18   54 1
    57   19   55 1
    58   19   56 1
    59   19   57 1
    60   20   58 1
    61   20   59 1
    62   21   60 1
    63   21   61 1
    64   22   62 1
    65   22   63 1
    66   23   64 1
    67   24   65 1
    68   26   66 1
    69   26   67 1
    70   27   68 1
    71   27   69 1
    72   28   70 1
    73   29   71 1
    74   34   72 1
@<TRIPOS>MOLECULE
1dwc_ligand_119
   72    74     0     0     0
SMALL
USER_CHARGES

mmff94s_NoEstat = 77.81
@<TRIPOS>ATOM
      1 C1          0.6009   -5.4402   -0.5450 C.ar      1 <0>        -0.1945
      2 C2          1.9177   -5.1745   -0.9146 C.ar      1 <0>        -0.0294
      3 C3          0.2538   -5.4826    0.8019 C.ar      1 <0>        -0.0143
      4 C4          2.8980   -4.9531    0.0635 C.ar      1 <0>        -0.1552
      5 C5          2.5489   -4.9659    1.4281 C.ar      1 <0>         0.3076
      6 C6          1.2217   -5.2505    1.7807 C.ar      1 <0>        -0.4908
      7 C7         -1.1116    1.0220    1.9825 C.2       1 <0>         0.5994
      8 C8          0.8654   -1.4427    3.2413 C.2       1 <0>         0.6462
      9 C9         -4.4983   -0.6337    6.1614 C.cat     1 <0>         0.6305
     10 C10         4.3179   -4.6587   -0.3572 C.3       1 <0>        -0.0319
     11 C11         2.1388    0.2326    0.2266 C.3       1 <0>        -0.0918
     12 C12        -0.3237   -0.1114   -0.0639 C.3       1 <0>        -0.0841
     13 C13         1.9602    0.1751    1.7384 C.3       1 <0>         0.0870
     14 C14         4.8245   -4.2772    2.0742 C.3       1 <0>         0.2023
     15 C15        -0.4871   -0.2577    1.4512 C.3       1 <0>         0.0778
     16 C16         5.3306   -4.9077    0.7723 C.3       1 <0>        -0.0746
     17 C17         0.8749    0.7635   -0.4549 C.3       1 <0>        -0.0681
     18 C18         5.6414   -6.3991    0.9431 C.3       1 <0>        -0.0944
     19 C19         1.0498    0.7979   -1.9719 C.3       1 <0>        -0.0918
     20 C20        -1.0866   -2.1427    5.4567 C.3       1 <0>        -0.1192
     21 C21        -1.3133   -2.4479    3.9716 C.3       1 <0>        -0.0916
     22 C22        -2.3970   -1.9935    6.2196 C.3       1 <0>         0.1883
     23 C23        -0.0078   -2.6730    3.2260 C.3       1 <0>         0.1952
     24 N1          3.4999   -4.7575    2.4193 N.pl3     1 <0>        -0.7670
     25 N2          0.7744   -0.5925    2.1333 N.am      1 <0>        -0.4509
     26 N3         -5.2661    0.3913    5.6185 N.pl3     1 <0>        -0.8477
     27 N4         -5.0125   -1.3802    7.2161 N.pl3     1 <0>        -0.8633
     28 N5         -3.2224   -0.9282    5.6689 N.pl3     1 <0>        -0.7419
     29 N6          0.7961   -3.6905    3.9267 N.pl3     1 <0>        -0.8860
     30 O1         -1.8136    1.7826    1.3329 O.2       1 <0>        -0.5199
     31 O2          1.6103   -1.2468    4.2054 O.2       1 <0>        -0.6131
     32 O3         -0.6876   -5.7475    3.4786 O.2       1 <0>        -0.6576
     33 O4          1.7036   -6.0834    4.1813 O.2       1 <0>        -0.6482
     34 O5         -0.7818    1.2113    3.2835 O.3       1 <0>        -0.6303
     35 S1          0.6998   -5.3249    3.4597 S.o2      1 <0>         1.5193
     36 H1         -0.1532   -5.6173   -1.3071 H         1 <0>         0.1426
     37 H2          2.1805   -5.1462   -1.9695 H         1 <0>         0.1398
     38 H3         -0.7676   -5.6946    1.1020 H         1 <0>         0.1599
     39 H4          4.5872   -5.2635   -1.2316 H         1 <0>         0.0574
     40 H5          4.3648   -3.6041   -0.6574 H         1 <0>         0.0629
     41 H6          2.9950    0.8726   -0.0171 H         1 <0>         0.0614
     42 H7          2.3692   -0.7717   -0.1514 H         1 <0>         0.0593
     43 H8         -0.1827   -1.1122   -0.4945 H         1 <0>         0.0841
     44 H9         -1.2391    0.2955   -0.5121 H         1 <0>         0.0679
     45 H10         2.8610   -0.2490    2.1940 H         1 <0>         0.0826
     46 H11         1.8403    1.1858    2.1470 H         1 <0>         0.0383
     47 H12         5.5138   -4.4958    2.8973 H         1 <0>         0.0556
     48 H13         4.7892   -3.1861    1.9666 H         1 <0>         0.0415
     49 H14        -1.2253   -1.0427    1.6435 H         1 <0>         0.0851
     50 H15         6.2762   -4.4249    0.4964 H         1 <0>         0.0639
     51 H16         0.6944    1.7923   -0.1196 H         1 <0>         0.0584
     52 H17         4.9808   -7.0038    0.3146 H         1 <0>         0.0401
     53 H18         6.6765   -6.6112    0.6589 H         1 <0>         0.0440
     54 H19         5.5005   -6.7043    1.9843 H         1 <0>         0.0459
     55 H20         0.1097    0.5485   -2.4730 H         1 <0>         0.0456
     56 H21         1.3618    1.7937   -2.3005 H         1 <0>         0.0366
     57 H22         1.8100    0.0770   -2.2875 H         1 <0>         0.0474
     58 H23        -0.4913   -2.9455    5.9081 H         1 <0>         0.0800
     59 H24        -0.5143   -1.2136    5.5600 H         1 <0>         0.0681
     60 H25        -1.8840   -1.6286    3.5148 H         1 <0>         0.0740
     61 H26        -1.9315   -3.3495    3.8758 H         1 <0>         0.0631
     62 H27        -2.2165   -1.7761    7.2772 H         1 <0>         0.0970
     63 H28        -2.9728   -2.9224    6.1586 H         1 <0>         0.0725
     64 H29        -0.1638   -2.9774    2.1921 H         1 <0>         0.0839
     65 H30         3.1862   -4.7016    3.3805 H         1 <0>         0.4531
     66 H31        -4.9308    0.9641    4.8486 H         1 <0>         0.4798
     67 H32        -6.1929    0.5993    5.9831 H         1 <0>         0.4881
     68 H33        -4.4781   -2.1366    7.6365 H         1 <0>         0.4801
     69 H34        -5.9375   -1.1898    7.5941 H         1 <0>         0.4806
     70 H35        -2.8722   -0.3628    4.8940 H         1 <0>         0.4689
     71 H36         1.6533   -3.3509    4.3757 H         1 <0>         0.4505
     72 H37        -1.1744    2.0345    3.6450 H         1 <0>         0.4443
@<TRIPOS>BOND
     1    1    2 ar
     2    1    3 ar
     3    2    4 ar
     4    3    6 ar
     5    4    5 ar
     6    4   10 1
     7    5    6 ar
     8    5   24 1
     9    6   35 1
    10    7   15 1
    11    7   30 2
    12    7   34 1
    13    8   23 1
    14    8   25 am
    15    8   31 2
    16    9   26 1
    17    9   27 1
    18    9   28 1
    19   10   16 1
    20   11   13 1
    21   11   17 1
    22   12   15 1
    23   12   17 1
    24   13   25 1
    25   14   16 1
    26   14   24 1
    27   15   25 1
    28   16   18 1
    29   17   19 1
    30   20   21 1
    31   20   22 1
    32   21   23 1
    33   22   28 1
    34   23   29 1
    35   29   35 1
    36   32   35 2
    37   33   35 2
    38    1   36 1
    39    2   37 1
    40    3   38 1
    41   10   39 1
    42   10   40 1
    43   11   41 1
    44   11   42 1
    45   12   43 1
    46   12   44 1
    47   13   45 1
    48   13   46 1
    49   14   47 1
    50   14   48 1
    51   15   49 1
    52   16   50 1
    53   17   51 1
    54   18   52 1
    55   18   53 1
    56   18   54 1
    57   19   55 1
    58   19   56 1
    59   19   57 1
    60   20   58 1
    61   20   59 1
    62   21   60 1
    63   21   61 1
    64   22   62 1
    65   22   63 1
    66   23   64 1
    67   24   65 1
    68   26   66 1
    69   26   67 1
    70   27   68 1
    71   27   69 1
    72   28   70 1
    73   29   71 1
    74   34   72 1
@<TRIPOS>MOLECULE
1dwc_ligand_120
   72    74     0     0     0
SMALL
USER_CHARGES

mmff94s_NoEstat = 77.86
@<TRIPOS>ATOM
      1 C1          0.3205    0.2218    6.9260 C.ar      1 <0>        -0.1945
      2 C2          0.4995    1.4601    6.3130 C.ar      1 <0>        -0.0294
      3 C3         -0.5256   -0.7215    6.3505 C.ar      1 <0>        -0.0143
      4 C4         -0.1655    1.7608    5.1157 C.ar      1 <0>        -0.1552
      5 C5         -1.0462    0.8223    4.5419 C.ar      1 <0>         0.3076
      6 C6         -1.2011   -0.4241    5.1658 C.ar      1 <0>        -0.4908
      7 C7          3.5686   -3.4379    3.7704 C.2       1 <0>         0.5994
      8 C8          0.8654   -1.4427    3.2413 C.2       1 <0>         0.6462
      9 C9         -1.1012   -7.8073    4.3609 C.cat     1 <0>         0.6305
     10 C10         0.0346    3.1106    4.4690 C.3       1 <0>        -0.0319
     11 C11         3.4440   -0.0674    5.4719 C.3       1 <0>        -0.0918
     12 C12         3.1682   -2.4952    6.0163 C.3       1 <0>        -0.0841
     13 C13         2.9000   -0.3276    4.0730 C.3       1 <0>         0.0870
     14 C14        -1.7112    2.4331    2.8019 C.3       1 <0>         0.2023
     15 C15         2.5392   -2.7371    4.6417 C.3       1 <0>         0.0778
     16 C16        -0.3325    3.0781    2.9771 C.3       1 <0>        -0.0746
     17 C17         4.1435   -1.3104    6.0281 C.3       1 <0>        -0.0681
     18 C18        -0.3048    4.4824    2.3800 C.3       1 <0>        -0.0944
     19 C19         4.6673   -1.0527    7.4396 C.3       1 <0>        -0.0918
     20 C20        -0.5404   -4.8511    2.0458 C.3       1 <0>        -0.1192
     21 C21         0.3004   -3.5693    2.0376 C.3       1 <0>        -0.0916
     22 C22        -0.3597   -5.6492    3.3311 C.3       1 <0>         0.1883
     23 C23        -0.0078   -2.6730    3.2260 C.3       1 <0>         0.1952
     24 N1         -1.7179    1.0923    3.3560 N.pl3     1 <0>        -0.7670
     25 N2          2.0252   -1.5038    4.0223 N.am      1 <0>        -0.4509
     26 N3         -1.8613   -8.9717    4.3243 N.pl3     1 <0>        -0.8477
     27 N4         -0.2834   -7.5659    5.4595 N.pl3     1 <0>        -0.8633
     28 N5         -1.1428   -6.8764    3.3174 N.pl3     1 <0>        -0.7419
     29 N6         -1.3760   -2.1385    3.1042 N.pl3     1 <0>        -0.8860
     30 O1          4.1316   -4.4849    4.0536 O.2       1 <0>        -0.5199
     31 O2          0.5240   -0.4555    2.5844 O.2       1 <0>        -0.6131
     32 O3         -2.2645   -2.7847    5.4337 O.2       1 <0>        -0.6576
     33 O4         -3.4757   -1.0330    4.0961 O.2       1 <0>        -0.6482
     34 O5          3.7837   -2.7404    2.6283 O.3       1 <0>        -0.6303
     35 S1         -2.2397   -1.6774    4.4970 S.o2      1 <0>         1.5193
     36 H1          0.8435   -0.0082    7.8502 H         1 <0>         0.1426
     37 H2          1.1648    2.1899    6.7682 H         1 <0>         0.1398
     38 H3         -0.6680   -1.6917    6.8158 H         1 <0>         0.1599
     39 H4         -0.5887    3.8423    4.9988 H         1 <0>         0.0574
     40 H5          1.0806    3.4239    4.5739 H         1 <0>         0.0629
     41 H6          4.1435    0.7764    5.4419 H         1 <0>         0.0614
     42 H7          2.6191    0.2214    6.1357 H         1 <0>         0.0593
     43 H8          2.3618   -2.2928    6.7345 H         1 <0>         0.0841
     44 H9          3.6813   -3.3988    6.3690 H         1 <0>         0.0679
     45 H10         2.3679    0.5618    3.7197 H         1 <0>         0.0826
     46 H11         3.7232   -0.5081    3.3711 H         1 <0>         0.0383
     47 H12        -2.4838    3.0348    3.2965 H         1 <0>         0.0556
     48 H13        -1.9724    2.3804    1.7391 H         1 <0>         0.0415
     49 H14         1.7211   -3.4548    4.7590 H         1 <0>         0.0851
     50 H15         0.4108    2.4697    2.4442 H         1 <0>         0.0639
     51 H16         5.0063   -1.5479    5.3937 H         1 <0>         0.0584
     52 H17        -0.3231    4.4358    1.2871 H         1 <0>         0.0401
     53 H18        -1.1718    5.0598    2.7148 H         1 <0>         0.0440
     54 H19         0.6017    5.0127    2.6870 H         1 <0>         0.0459
     55 H20         4.2777   -1.8006    8.1367 H         1 <0>         0.0456
     56 H21         5.7602   -1.1000    7.4588 H         1 <0>         0.0366
     57 H22         4.3590   -0.0627    7.7891 H         1 <0>         0.0474
     58 H23        -1.5993   -4.5943    1.9218 H         1 <0>         0.0800
     59 H24        -0.2563   -5.4850    1.1980 H         1 <0>         0.0681
     60 H25         0.1357   -3.0322    1.0943 H         1 <0>         0.0740
     61 H26         1.3654   -3.8328    2.0643 H         1 <0>         0.0631
     62 H27        -0.6565   -5.0623    4.2062 H         1 <0>         0.0970
     63 H28         0.6914   -5.9295    3.4522 H         1 <0>         0.0725
     64 H29         0.1003   -3.1895    4.1787 H         1 <0>         0.0839
     65 H30        -2.3965    0.4186    3.0229 H         1 <0>         0.4531
     66 H31        -2.4745   -9.1890    3.5432 H         1 <0>         0.4798
     67 H32        -1.8257   -9.6431    5.0878 H         1 <0>         0.4881
     68 H33         0.2854   -6.7248    5.5187 H         1 <0>         0.4801
     69 H34        -0.2317   -8.2251    6.2325 H         1 <0>         0.4806
     70 H35        -1.7526   -7.0814    2.5245 H         1 <0>         0.4689
     71 H36        -1.6042   -1.6955    2.2078 H         1 <0>         0.4505
     72 H37         4.4476   -3.1762    2.0524 H         1 <0>         0.4443
@<TRIPOS>BOND
     1    1    2 ar
     2    1    3 ar
     3    2    4 ar
     4    3    6 ar
     5    4    5 ar
     6    4   10 1
     7    5    6 ar
     8    5   24 1
     9    6   35 1
    10    7   15 1
    11    7   30 2
    12    7   34 1
    13    8   23 1
    14    8   25 am
    15    8   31 2
    16    9   26 1
    17    9   27 1
    18    9   28 1
    19   10   16 1
    20   11   13 1
    21   11   17 1
    22   12   15 1
    23   12   17 1
    24   13   25 1
    25   14   16 1
    26   14   24 1
    27   15   25 1
    28   16   18 1
    29   17   19 1
    30   20   21 1
    31   20   22 1
    32   21   23 1
    33   22   28 1
    34   23   29 1
    35   29   35 1
    36   32   35 2
    37   33   35 2
    38    1   36 1
    39    2   37 1
    40    3   38 1
    41   10   39 1
    42   10   40 1
    43   11   41 1
    44   11   42 1
    45   12   43 1
    46   12   44 1
    47   13   45 1
    48   13   46 1
    49   14   47 1
    50   14   48 1
    51   15   49 1
    52   16   50 1
    53   17   51 1
    54   18   52 1
    55   18   53 1
    56   18   54 1
    57   19   55 1
    58   19   56 1
    59   19   57 1
    60   20   58 1
    61   20   59 1
    62   21   60 1
    63   21   61 1
    64   22   62 1
    65   22   63 1
    66   23   64 1
    67   24   65 1
    68   26   66 1
    69   26   67 1
    70   27   68 1
    71   27   69 1
    72   28   70 1
    73   29   71 1
    74   34   72 1
@<TRIPOS>MOLECULE
1dwc_ligand_121
   72    74     0     0     0
SMALL
USER_CHARGES

mmff94s_NoEstat = 77.89
@<TRIPOS>ATOM
      1 C1          4.5626   -6.2396   -3.1257 C.ar      1 <0>        -0.1945
      2 C2          3.6098   -7.1989   -2.7894 C.ar      1 <0>        -0.0294
      3 C3          4.1569   -4.9818   -3.5618 C.ar      1 <0>        -0.0143
      4 C4          2.2424   -6.9031   -2.8839 C.ar      1 <0>        -0.1552
      5 C5          1.8233   -5.6419   -3.3522 C.ar      1 <0>         0.3076
      6 C6          2.7974   -4.6848   -3.6711 C.ar      1 <0>        -0.4908
      7 C7          0.5484   -0.8946    1.4535 C.2       1 <0>         0.5994
      8 C8          2.9466   -1.3973   -0.6457 C.2       1 <0>         0.6462
      9 C9          8.2839   -0.2639   -4.3456 C.cat     1 <0>         0.6305
     10 C10         1.2236   -7.9574   -2.5224 C.3       1 <0>        -0.0319
     11 C11         1.0071   -4.1523    1.0299 C.3       1 <0>        -0.0918
     12 C12         1.8830   -2.5004    2.7729 C.3       1 <0>        -0.0841
     13 C13         2.2320   -3.6460    0.2757 C.3       1 <0>         0.0870
     14 C14        -0.5345   -6.3513   -3.3071 C.3       1 <0>         0.2023
     15 C15         1.9200   -1.5343    1.5913 C.3       1 <0>         0.0778
     16 C16        -0.1411   -7.3305   -2.1962 C.3       1 <0>        -0.0746
     17 C17         1.0079   -3.7392    2.5107 C.3       1 <0>        -0.0681
     18 C18        -1.2052   -8.4095   -2.0149 C.3       1 <0>        -0.0944
     19 C19         1.4463   -4.8953    3.4115 C.3       1 <0>        -0.0918
     20 C20         5.7415   -1.0578   -1.6401 C.3       1 <0>        -0.1192
     21 C21         4.5564   -1.3488   -2.5679 C.3       1 <0>        -0.0916
     22 C22         6.8115   -0.2136   -2.3213 C.3       1 <0>         0.1883
     23 C23         3.4544   -2.1251   -1.8653 C.3       1 <0>         0.1952
     24 N1          0.4755   -5.3205   -3.4555 N.pl3     1 <0>        -0.7670
     25 N2          2.3654   -2.1840    0.3531 N.am      1 <0>        -0.4509
     26 N3          8.7668   -0.9088   -5.4795 N.pl3     1 <0>        -0.8477
     27 N4          8.7590    1.0053   -4.0334 N.pl3     1 <0>        -0.8633
     28 N5          7.3321   -0.8648   -3.5148 N.pl3     1 <0>        -0.7419
     29 N6          2.2741   -2.2179   -2.7432 N.pl3     1 <0>        -0.8860
     30 O1         -0.0257   -0.2688    2.3322 O.2       1 <0>        -0.5199
     31 O2          3.0580   -0.1705   -0.5795 O.2       1 <0>        -0.6131
     32 O3          3.4786   -2.5500   -4.9955 O.2       1 <0>        -0.6576
     33 O4          1.0452   -3.1536   -4.7996 O.2       1 <0>        -0.6482
     34 O5          0.0400   -1.1141    0.2163 O.3       1 <0>        -0.6303
     35 S1          2.3700   -3.0669   -4.2159 S.o2      1 <0>         1.5193
     36 H1          5.6208   -6.4721   -3.0440 H         1 <0>         0.1426
     37 H2          3.9359   -8.1780   -2.4467 H         1 <0>         0.1398
     38 H3          4.8901   -4.2246   -3.8207 H         1 <0>         0.1599
     39 H4          1.1317   -8.6518   -3.3671 H         1 <0>         0.0574
     40 H5          1.5711   -8.5308   -1.6542 H         1 <0>         0.0629
     41 H6          0.1116   -3.7326    0.5525 H         1 <0>         0.0614
     42 H7          0.9264   -5.2409    0.9288 H         1 <0>         0.0593
     43 H8          2.9117   -2.8226    2.9853 H         1 <0>         0.0841
     44 H9          1.5267   -1.9929    3.6785 H         1 <0>         0.0679
     45 H10         3.1493   -4.0774    0.6933 H         1 <0>         0.0826
     46 H11         2.1726   -3.9558   -0.7722 H         1 <0>         0.0383
     47 H12        -0.6578   -6.8796   -4.2606 H         1 <0>         0.0556
     48 H13        -1.4944   -5.8780   -3.0722 H         1 <0>         0.0415
     49 H14         2.6095   -0.7128    1.8202 H         1 <0>         0.0851
     50 H15        -0.0578   -6.7761   -1.2516 H         1 <0>         0.0639
     51 H16        -0.0273   -3.5034    2.7887 H         1 <0>         0.0584
     52 H17        -2.1023   -7.9902   -1.5497 H         1 <0>         0.0401
     53 H18        -1.4866   -8.8384   -2.9813 H         1 <0>         0.0440
     54 H19        -0.8307   -9.2152   -1.3763 H         1 <0>         0.0459
     55 H20         0.5753   -5.4296    3.8024 H         1 <0>         0.0456
     56 H21         2.0638   -5.6051    2.8530 H         1 <0>         0.0366
     57 H22         2.0303   -4.5225    4.2583 H         1 <0>         0.0474
     58 H23         5.3842   -0.5386   -0.7426 H         1 <0>         0.0800
     59 H24         6.1956   -2.0004   -1.3135 H         1 <0>         0.0681
     60 H25         4.9119   -1.8947   -3.4517 H         1 <0>         0.0740
     61 H26         4.1396   -0.4017   -2.9334 H         1 <0>         0.0631
     62 H27         7.6493   -0.0157   -1.6451 H         1 <0>         0.0970
     63 H28         6.3893    0.7487   -2.6278 H         1 <0>         0.0725
     64 H29         3.7703   -3.1244   -1.5692 H         1 <0>         0.0839
     65 H30         0.2230   -4.4307   -3.8677 H         1 <0>         0.4531
     66 H31         8.4501   -1.8373   -5.7457 H         1 <0>         0.4798
     67 H32         9.4595   -0.4648   -6.0779 H         1 <0>         0.4881
     68 H33         8.4274    1.5051   -3.2120 H         1 <0>         0.4801
     69 H34         9.4501    1.4677   -4.6194 H         1 <0>         0.4806
     70 H35         7.0024   -1.7969   -3.7700 H         1 <0>         0.4689
     71 H36         1.3641   -2.1281   -2.2790 H         1 <0>         0.4505
     72 H37        -0.8473   -0.7100    0.1079 H         1 <0>         0.4443
@<TRIPOS>BOND
     1    1    2 ar
     2    1    3 ar
     3    2    4 ar
     4    3    6 ar
     5    4    5 ar
     6    4   10 1
     7    5    6 ar
     8    5   24 1
     9    6   35 1
    10    7   15 1
    11    7   30 2
    12    7   34 1
    13    8   23 1
    14    8   25 am
    15    8   31 2
    16    9   26 1
    17    9   27 1
    18    9   28 1
    19   10   16 1
    20   11   13 1
    21   11   17 1
    22   12   15 1
    23   12   17 1
    24   13   25 1
    25   14   16 1
    26   14   24 1
    27   15   25 1
    28   16   18 1
    29   17   19 1
    30   20   21 1
    31   20   22 1
    32   21   23 1
    33   22   28 1
    34   23   29 1
    35   29   35 1
    36   32   35 2
    37   33   35 2
    38    1   36 1
    39    2   37 1
    40    3   38 1
    41   10   39 1
    42   10   40 1
    43   11   41 1
    44   11   42 1
    45   12   43 1
    46   12   44 1
    47   13   45 1
    48   13   46 1
    49   14   47 1
    50   14   48 1
    51   15   49 1
    52   16   50 1
    53   17   51 1
    54   18   52 1
    55   18   53 1
    56   18   54 1
    57   19   55 1
    58   19   56 1
    59   19   57 1
    60   20   58 1
    61   20   59 1
    62   21   60 1
    63   21   61 1
    64   22   62 1
    65   22   63 1
    66   23   64 1
    67   24   65 1
    68   26   66 1
    69   26   67 1
    70   27   68 1
    71   27   69 1
    72   28   70 1
    73   29   71 1
    74   34   72 1
@<TRIPOS>MOLECULE
1dwc_ligand_122
   72    74     0     0     0
SMALL
USER_CHARGES

mmff94s_NoEstat = 77.92
@<TRIPOS>ATOM
      1 C1         -2.7374   -5.2793   -0.2736 C.ar      1 <0>        -0.1945
      2 C2         -3.2110   -4.3658   -1.2130 C.ar      1 <0>        -0.0294
      3 C3         -2.5916   -4.8947    1.0560 C.ar      1 <0>        -0.0143
      4 C4         -3.5461   -3.0604   -0.8258 C.ar      1 <0>        -0.1552
      5 C5         -3.3740   -2.6546    0.5126 C.ar      1 <0>         0.3076
      6 C6         -2.9106   -3.5930    1.4461 C.ar      1 <0>        -0.4908
      7 C7          1.8094   -2.2220    6.4146 C.2       1 <0>         0.5994
      8 C8          0.8654   -1.4427    3.2413 C.2       1 <0>         0.6462
      9 C9          2.1577   -4.6267   -1.7165 C.cat     1 <0>         0.6305
     10 C10        -4.0509   -2.0814   -1.8586 C.3       1 <0>        -0.0319
     11 C11         1.3547    1.4153    5.5015 C.3       1 <0>        -0.0918
     12 C12         0.1935   -0.3932    6.7850 C.3       1 <0>        -0.0841
     13 C13         1.9116    0.3681    4.5455 C.3       1 <0>         0.0870
     14 C14        -4.0009   -0.3416   -0.0541 C.3       1 <0>         0.2023
     15 C15         0.6811   -1.4322    5.7719 C.3       1 <0>         0.0778
     16 C16        -4.8257   -0.9262   -1.2054 C.3       1 <0>        -0.0746
     17 C17         1.1262    0.8207    6.8935 C.3       1 <0>        -0.0681
     18 C18        -5.1690    0.1479   -2.2340 C.3       1 <0>        -0.0944
     19 C19         0.5462    1.8676    7.8426 C.3       1 <0>        -0.0918
     20 C20         1.7689   -4.0083    2.0091 C.3       1 <0>        -0.1192
     21 C21         0.3004   -3.5693    2.0376 C.3       1 <0>        -0.0916
     22 C22         2.0958   -4.8429    0.7769 C.3       1 <0>         0.1883
     23 C23        -0.0078   -2.6730    3.2260 C.3       1 <0>         0.1952
     24 N1         -3.6984   -1.3681    0.9253 N.pl3     1 <0>        -0.7670
     25 N2          1.0754   -0.8353    4.4846 N.am      1 <0>        -0.4509
     26 N3          1.9356   -3.8927   -2.8771 N.pl3     1 <0>        -0.8477
     27 N4          2.6719   -5.9149   -1.8171 N.pl3     1 <0>        -0.8633
     28 N5          1.8751   -4.0962   -0.4532 N.pl3     1 <0>        -0.7419
     29 N6         -1.3760   -2.1385    3.1042 N.pl3     1 <0>        -0.8860
     30 O1          1.9591   -2.3802    7.6171 O.2       1 <0>        -0.5199
     31 O2          1.3411   -1.0305    2.1799 O.2       1 <0>        -0.6131
     32 O3         -3.8876   -2.4594    3.5758 O.2       1 <0>        -0.6576
     33 O4         -2.3275   -4.4157    3.8277 O.2       1 <0>        -0.6482
     34 O5          2.6370   -2.7304    5.4691 O.3       1 <0>        -0.6303
     35 S1         -2.7118   -3.1932    3.1483 S.o2      1 <0>         1.5193
     36 H1         -2.4856   -6.2914   -0.5781 H         1 <0>         0.1426
     37 H2         -3.3245   -4.6759   -2.2491 H         1 <0>         0.1398
     38 H3         -2.2294   -5.5995    1.7977 H         1 <0>         0.1599
     39 H4         -3.1889   -1.6944   -2.4168 H         1 <0>         0.0574
     40 H5         -4.7076   -2.5954   -2.5713 H         1 <0>         0.0629
     41 H6          2.0492    2.2615    5.5629 H         1 <0>         0.0614
     42 H7          0.4079    1.8038    5.1048 H         1 <0>         0.0593
     43 H8         -0.8003   -0.0449    6.4717 H         1 <0>         0.0841
     44 H9          0.0668   -0.8506    7.7745 H         1 <0>         0.0679
     45 H10         2.0225    0.8091    3.5494 H         1 <0>         0.0826
     46 H11         2.9105    0.0502    4.8680 H         1 <0>         0.0383
     47 H12        -3.0647    0.0891   -0.4306 H         1 <0>         0.0556
     48 H13        -4.5550    0.4664    0.4366 H         1 <0>         0.0415
     49 H14        -0.1232   -2.1562    5.6073 H         1 <0>         0.0851
     50 H15        -5.7679   -1.3185   -0.7994 H         1 <0>         0.0639
     51 H16         2.0901    0.4983    7.3061 H         1 <0>         0.0584
     52 H17        -5.9177    0.8380   -1.8337 H         1 <0>         0.0401
     53 H18        -4.2777    0.7235   -2.5010 H         1 <0>         0.0440
     54 H19        -5.5713   -0.3064   -3.1444 H         1 <0>         0.0459
     55 H20        -0.3870    1.5087    8.2868 H         1 <0>         0.0456
     56 H21         1.2507    2.0862    8.6507 H         1 <0>         0.0366
     57 H22         0.3370    2.7982    7.3067 H         1 <0>         0.0474
     58 H23         2.4156   -3.1229    2.0318 H         1 <0>         0.0800
     59 H24         1.9949   -4.6013    2.9028 H         1 <0>         0.0681
     60 H25        -0.3448   -4.4577    2.0448 H         1 <0>         0.0740
     61 H26         0.0666   -3.0218    1.1158 H         1 <0>         0.0631
     62 H27         1.4860   -5.7513    0.7413 H         1 <0>         0.0970
     63 H28         3.1484   -5.1425    0.7970 H         1 <0>         0.0725
     64 H29         0.1003   -3.1895    4.1787 H         1 <0>         0.0839
     65 H30        -3.4869   -1.1007    1.8788 H         1 <0>         0.4531
     66 H31         1.5595   -2.9487   -2.8523 H         1 <0>         0.4798
     67 H32         2.1433   -4.2863   -3.7920 H         1 <0>         0.4881
     68 H33         2.8463   -6.4791   -0.9889 H         1 <0>         0.4801
     69 H34         2.8881   -6.3264   -2.7218 H         1 <0>         0.4806
     70 H35         1.4985   -3.1480   -0.4116 H         1 <0>         0.4689
     71 H36        -1.5021   -1.1633    3.3956 H         1 <0>         0.4505
     72 H37         3.3741   -3.2429    5.8645 H         1 <0>         0.4443
@<TRIPOS>BOND
     1    1    2 ar
     2    1    3 ar
     3    2    4 ar
     4    3    6 ar
     5    4    5 ar
     6    4   10 1
     7    5    6 ar
     8    5   24 1
     9    6   35 1
    10    7   15 1
    11    7   30 2
    12    7   34 1
    13    8   23 1
    14    8   25 am
    15    8   31 2
    16    9   26 1
    17    9   27 1
    18    9   28 1
    19   10   16 1
    20   11   13 1
    21   11   17 1
    22   12   15 1
    23   12   17 1
    24   13   25 1
    25   14   16 1
    26   14   24 1
    27   15   25 1
    28   16   18 1
    29   17   19 1
    30   20   21 1
    31   20   22 1
    32   21   23 1
    33   22   28 1
    34   23   29 1
    35   29   35 1
    36   32   35 2
    37   33   35 2
    38    1   36 1
    39    2   37 1
    40    3   38 1
    41   10   39 1
    42   10   40 1
    43   11   41 1
    44   11   42 1
    45   12   43 1
    46   12   44 1
    47   13   45 1
    48   13   46 1
    49   14   47 1
    50   14   48 1
    51   15   49 1
    52   16   50 1
    53   17   51 1
    54   18   52 1
    55   18   53 1
    56   18   54 1
    57   19   55 1
    58   19   56 1
    59   19   57 1
    60   20   58 1
    61   20   59 1
    62   21   60 1
    63   21   61 1
    64   22   62 1
    65   22   63 1
    66   23   64 1
    67   24   65 1
    68   26   66 1
    69   26   67 1
    70   27   68 1
    71   27   69 1
    72   28   70 1
    73   29   71 1
    74   34   72 1
@<TRIPOS>MOLECULE
1dwc_ligand_123
   72    74     0     0     0
SMALL
USER_CHARGES

mmff94s_NoEstat = 77.96
@<TRIPOS>ATOM
      1 C1         -1.5516   -4.4277    7.3298 C.ar      1 <0>        -0.1945
      2 C2         -2.3348   -5.5104    6.9352 C.ar      1 <0>        -0.0294
      3 C3         -1.5385   -3.2654    6.5644 C.ar      1 <0>        -0.0143
      4 C4         -3.1142   -5.4347    5.7720 C.ar      1 <0>        -0.1552
      5 C5         -3.0840   -4.2723    4.9761 C.ar      1 <0>         0.3076
      6 C6         -2.3015   -3.1877    5.3982 C.ar      1 <0>        -0.4908
      7 C7          3.6572    0.2351    4.2205 C.2       1 <0>         0.5994
      8 C8          0.8654   -1.4427    3.2413 C.2       1 <0>         0.6462
      9 C9          1.7699   -7.1193    0.0630 C.cat     1 <0>         0.6305
     10 C10        -3.9512   -6.6204    5.3554 C.3       1 <0>        -0.0319
     11 C11         3.8985   -3.4862    3.6166 C.3       1 <0>        -0.0918
     12 C12         4.5525   -1.3270    2.5319 C.3       1 <0>        -0.0841
     13 C13         2.6738   -2.8056    4.2145 C.3       1 <0>         0.0870
     14 C14        -4.5113   -5.3376    3.2753 C.3       1 <0>         0.2023
     15 C15         3.2751   -0.6689    3.0601 C.3       1 <0>         0.0778
     16 C16        -5.0831   -6.2018    4.4040 C.3       1 <0>        -0.0746
     17 C17         5.0385   -2.4845    3.4144 C.3       1 <0>        -0.0681
     18 C18        -5.8039   -7.4257    3.8454 C.3       1 <0>        -0.0944
     19 C19         6.2563   -3.1661    2.7936 C.3       1 <0>        -0.0918
     20 C20        -0.5404   -4.8511    2.0458 C.3       1 <0>        -0.1192
     21 C21         0.3004   -3.5693    2.0376 C.3       1 <0>        -0.0916
     22 C22        -0.1768   -5.7847    0.8978 C.3       1 <0>         0.1883
     23 C23        -0.0078   -2.6730    3.2260 C.3       1 <0>         0.1952
     24 N1         -3.8463   -4.1684    3.8190 N.pl3     1 <0>        -0.7670
     25 N2          2.2374   -1.6470    3.4280 N.am      1 <0>        -0.4509
     26 N3          3.1011   -7.5120    0.1550 N.pl3     1 <0>        -0.8477
     27 N4          0.9786   -7.6393   -0.9556 N.pl3     1 <0>        -0.8633
     28 N5          1.2122   -6.2141    0.9723 N.pl3     1 <0>        -0.7419
     29 N6         -1.3760   -2.1385    3.1042 N.pl3     1 <0>        -0.8860
     30 O1          4.4823    1.1350    4.1670 O.2       1 <0>        -0.5199
     31 O2          0.3435   -0.3338    3.0981 O.2       1 <0>        -0.6131
     32 O3         -3.5960   -1.3232    4.1243 O.2       1 <0>        -0.6576
     33 O4         -1.4314   -0.7555    5.2719 O.2       1 <0>        -0.6482
     34 O5          2.9574   -0.0934    5.3339 O.3       1 <0>        -0.6303
     35 S1         -2.2397   -1.6774    4.4970 S.o2      1 <0>         1.5193
     36 H1         -0.9549   -4.4896    8.2356 H         1 <0>         0.1426
     37 H2         -2.3412   -6.4135    7.5409 H         1 <0>         0.1398
     38 H3         -0.9370   -2.4135    6.8653 H         1 <0>         0.1599
     39 H4         -3.2943   -7.3516    4.8675 H         1 <0>         0.0574
     40 H5         -4.3865   -7.1001    6.2407 H         1 <0>         0.0629
     41 H6          4.2244   -4.2993    4.2761 H         1 <0>         0.0614
     42 H7          3.6296   -3.9402    2.6542 H         1 <0>         0.0593
     43 H8          4.3500   -1.7152    1.5243 H         1 <0>         0.0841
     44 H9          5.3525   -0.5834    2.4253 H         1 <0>         0.0679
     45 H10         1.8623   -3.5349    4.3059 H         1 <0>         0.0826
     46 H11         2.8945   -2.4435    5.2260 H         1 <0>         0.0383
     47 H12        -3.7986   -5.9137    2.6721 H         1 <0>         0.0556
     48 H13        -5.3138   -5.0110    2.6047 H         1 <0>         0.0415
     49 H14         2.8873    0.0006    2.2858 H         1 <0>         0.0851
     50 H15        -5.8148   -5.6064    4.9667 H         1 <0>         0.0639
     51 H16         5.3432   -2.0892    4.3913 H         1 <0>         0.0584
     52 H17        -6.7464   -7.1341    3.3725 H         1 <0>         0.0401
     53 H18        -5.1841   -7.9286    3.0971 H         1 <0>         0.0440
     54 H19        -6.0259   -8.1390    4.6448 H         1 <0>         0.0459
     55 H20         6.5585   -2.6519    1.8763 H         1 <0>         0.0456
     56 H21         7.1004   -3.1536    3.4896 H         1 <0>         0.0366
     57 H22         6.0293   -4.2073    2.5458 H         1 <0>         0.0474
     58 H23        -0.4002   -5.3741    2.9994 H         1 <0>         0.0800
     59 H24        -1.6035   -4.5964    1.9658 H         1 <0>         0.0681
     60 H25         0.1357   -3.0322    1.0943 H         1 <0>         0.0740
     61 H26         1.3654   -3.8328    2.0643 H         1 <0>         0.0631
     62 H27        -0.3350   -5.3004   -0.0711 H         1 <0>         0.0970
     63 H28        -0.8024   -6.6822    0.9336 H         1 <0>         0.0725
     64 H29         0.1003   -3.1895    4.1787 H         1 <0>         0.0839
     65 H30        -3.7341   -3.3447    3.2409 H         1 <0>         0.4531
     66 H31         3.7173   -7.1568    0.8813 H         1 <0>         0.4798
     67 H32         3.4989   -8.1703   -0.5108 H         1 <0>         0.4881
     68 H33         0.0016   -7.3736   -1.0521 H         1 <0>         0.4801
     69 H34         1.3562   -8.3001   -1.6305 H         1 <0>         0.4806
     70 H35         1.8180   -5.8498    1.7091 H         1 <0>         0.4689
     71 H36        -1.6042   -1.6955    2.2078 H         1 <0>         0.4505
     72 H37         3.1915    0.4784    6.0959 H         1 <0>         0.4443
@<TRIPOS>BOND
     1    1    2 ar
     2    1    3 ar
     3    2    4 ar
     4    3    6 ar
     5    4    5 ar
     6    4   10 1
     7    5    6 ar
     8    5   24 1
     9    6   35 1
    10    7   15 1
    11    7   30 2
    12    7   34 1
    13    8   23 1
    14    8   25 am
    15    8   31 2
    16    9   26 1
    17    9   27 1
    18    9   28 1
    19   10   16 1
    20   11   13 1
    21   11   17 1
    22   12   15 1
    23   12   17 1
    24   13   25 1
    25   14   16 1
    26   14   24 1
    27   15   25 1
    28   16   18 1
    29   17   19 1
    30   20   21 1
    31   20   22 1
    32   21   23 1
    33   22   28 1
    34   23   29 1
    35   29   35 1
    36   32   35 2
    37   33   35 2
    38    1   36 1
    39    2   37 1
    40    3   38 1
    41   10   39 1
    42   10   40 1
    43   11   41 1
    44   11   42 1
    45   12   43 1
    46   12   44 1
    47   13   45 1
    48   13   46 1
    49   14   47 1
    50   14   48 1
    51   15   49 1
    52   16   50 1
    53   17   51 1
    54   18   52 1
    55   18   53 1
    56   18   54 1
    57   19   55 1
    58   19   56 1
    59   19   57 1
    60   20   58 1
    61   20   59 1
    62   21   60 1
    63   21   61 1
    64   22   62 1
    65   22   63 1
    66   23   64 1
    67   24   65 1
    68   26   66 1
    69   26   67 1
    70   27   68 1
    71   27   69 1
    72   28   70 1
    73   29   71 1
    74   34   72 1
@<TRIPOS>MOLECULE
1dwc_ligand_124
   72    74     0     0     0
SMALL
USER_CHARGES

mmff94s_NoEstat = 77.97
@<TRIPOS>ATOM
      1 C1         -1.5516   -4.4277    7.3298 C.ar      1 <0>        -0.1945
      2 C2         -2.3348   -5.5104    6.9352 C.ar      1 <0>        -0.0294
      3 C3         -1.5385   -3.2654    6.5644 C.ar      1 <0>        -0.0143
      4 C4         -3.1142   -5.4347    5.7720 C.ar      1 <0>        -0.1552
      5 C5         -3.0840   -4.2723    4.9761 C.ar      1 <0>         0.3076
      6 C6         -2.3015   -3.1877    5.3982 C.ar      1 <0>        -0.4908
      7 C7          3.6572    0.2351    4.2205 C.2       1 <0>         0.5994
      8 C8          0.8654   -1.4427    3.2413 C.2       1 <0>         0.6462
      9 C9         -0.8941   -7.9715   -0.0876 C.cat     1 <0>         0.6305
     10 C10        -3.9512   -6.6204    5.3554 C.3       1 <0>        -0.0319
     11 C11         3.8985   -3.4862    3.6166 C.3       1 <0>        -0.0918
     12 C12         4.5525   -1.3270    2.5319 C.3       1 <0>        -0.0841
     13 C13         2.6738   -2.8056    4.2145 C.3       1 <0>         0.0870
     14 C14        -4.5113   -5.3376    3.2753 C.3       1 <0>         0.2023
     15 C15         3.2751   -0.6689    3.0601 C.3       1 <0>         0.0778
     16 C16        -5.0831   -6.2018    4.4040 C.3       1 <0>        -0.0746
     17 C17         5.0385   -2.4845    3.4144 C.3       1 <0>        -0.0681
     18 C18        -5.8039   -7.4257    3.8454 C.3       1 <0>        -0.0944
     19 C19         6.2563   -3.1661    2.7936 C.3       1 <0>        -0.0918
     20 C20        -0.5404   -4.8511    2.0458 C.3       1 <0>        -0.1192
     21 C21         0.3004   -3.5693    2.0376 C.3       1 <0>        -0.0916
     22 C22        -0.1768   -5.7847    0.8978 C.3       1 <0>         0.1883
     23 C23        -0.0078   -2.6730    3.2260 C.3       1 <0>         0.1952
     24 N1         -3.8463   -4.1684    3.8190 N.pl3     1 <0>        -0.7670
     25 N2          2.2374   -1.6470    3.4280 N.am      1 <0>        -0.4509
     26 N3         -1.6898   -9.1122   -0.0609 N.pl3     1 <0>        -0.8477
     27 N4          0.0239   -7.8094   -1.1196 N.pl3     1 <0>        -0.8633
     28 N5         -0.9984   -6.9865    0.9003 N.pl3     1 <0>        -0.7419
     29 N6         -1.3760   -2.1385    3.1042 N.pl3     1 <0>        -0.8860
     30 O1          4.4823    1.1350    4.1670 O.2       1 <0>        -0.5199
     31 O2          0.3435   -0.3338    3.0981 O.2       1 <0>        -0.6131
     32 O3         -3.5960   -1.3232    4.1243 O.2       1 <0>        -0.6576
     33 O4         -1.4314   -0.7555    5.2719 O.2       1 <0>        -0.6482
     34 O5          2.9574   -0.0934    5.3339 O.3       1 <0>        -0.6303
     35 S1         -2.2397   -1.6774    4.4970 S.o2      1 <0>         1.5193
     36 H1         -0.9549   -4.4896    8.2356 H         1 <0>         0.1426
     37 H2         -2.3412   -6.4135    7.5409 H         1 <0>         0.1398
     38 H3         -0.9370   -2.4135    6.8653 H         1 <0>         0.1599
     39 H4         -3.2943   -7.3516    4.8675 H         1 <0>         0.0574
     40 H5         -4.3865   -7.1001    6.2407 H         1 <0>         0.0629
     41 H6          4.2244   -4.2993    4.2761 H         1 <0>         0.0614
     42 H7          3.6296   -3.9402    2.6542 H         1 <0>         0.0593
     43 H8          4.3500   -1.7152    1.5243 H         1 <0>         0.0841
     44 H9          5.3525   -0.5834    2.4253 H         1 <0>         0.0679
     45 H10         1.8623   -3.5349    4.3059 H         1 <0>         0.0826
     46 H11         2.8945   -2.4435    5.2260 H         1 <0>         0.0383
     47 H12        -3.7986   -5.9137    2.6721 H         1 <0>         0.0556
     48 H13        -5.3138   -5.0110    2.6047 H         1 <0>         0.0415
     49 H14         2.8873    0.0006    2.2858 H         1 <0>         0.0851
     50 H15        -5.8148   -5.6064    4.9667 H         1 <0>         0.0639
     51 H16         5.3432   -2.0892    4.3913 H         1 <0>         0.0584
     52 H17        -6.7464   -7.1341    3.3725 H         1 <0>         0.0401
     53 H18        -5.1841   -7.9286    3.0971 H         1 <0>         0.0440
     54 H19        -6.0259   -8.1390    4.6448 H         1 <0>         0.0459
     55 H20         6.5585   -2.6519    1.8763 H         1 <0>         0.0456
     56 H21         7.1004   -3.1536    3.4896 H         1 <0>         0.0366
     57 H22         6.0293   -4.2073    2.5458 H         1 <0>         0.0474
     58 H23        -0.4002   -5.3741    2.9994 H         1 <0>         0.0800
     59 H24        -1.6035   -4.5964    1.9658 H         1 <0>         0.0681
     60 H25         0.1357   -3.0322    1.0943 H         1 <0>         0.0740
     61 H26         1.3654   -3.8328    2.0643 H         1 <0>         0.0631
     62 H27         0.8739   -6.0869    0.9513 H         1 <0>         0.0970
     63 H28        -0.3350   -5.2785   -0.0598 H         1 <0>         0.0725
     64 H29         0.1003   -3.1895    4.1787 H         1 <0>         0.0839
     65 H30        -3.7341   -3.3447    3.2409 H         1 <0>         0.4531
     66 H31        -2.3726   -9.2741    0.6745 H         1 <0>         0.4798
     67 H32        -1.6070   -9.8240   -0.7830 H         1 <0>         0.4881
     68 H33         0.6213   -6.9877   -1.1696 H         1 <0>         0.4801
     69 H34         0.1212   -8.5082   -1.8524 H         1 <0>         0.4806
     70 H35        -1.6814   -7.1337    1.6450 H         1 <0>         0.4689
     71 H36        -1.6042   -1.6955    2.2078 H         1 <0>         0.4505
     72 H37         3.1915    0.4784    6.0959 H         1 <0>         0.4443
@<TRIPOS>BOND
     1    1    2 ar
     2    1    3 ar
     3    2    4 ar
     4    3    6 ar
     5    4    5 ar
     6    4   10 1
     7    5    6 ar
     8    5   24 1
     9    6   35 1
    10    7   15 1
    11    7   30 2
    12    7   34 1
    13    8   23 1
    14    8   25 am
    15    8   31 2
    16    9   26 1
    17    9   27 1
    18    9   28 1
    19   10   16 1
    20   11   13 1
    21   11   17 1
    22   12   15 1
    23   12   17 1
    24   13   25 1
    25   14   16 1
    26   14   24 1
    27   15   25 1
    28   16   18 1
    29   17   19 1
    30   20   21 1
    31   20   22 1
    32   21   23 1
    33   22   28 1
    34   23   29 1
    35   29   35 1
    36   32   35 2
    37   33   35 2
    38    1   36 1
    39    2   37 1
    40    3   38 1
    41   10   39 1
    42   10   40 1
    43   11   41 1
    44   11   42 1
    45   12   43 1
    46   12   44 1
    47   13   45 1
    48   13   46 1
    49   14   47 1
    50   14   48 1
    51   15   49 1
    52   16   50 1
    53   17   51 1
    54   18   52 1
    55   18   53 1
    56   18   54 1
    57   19   55 1
    58   19   56 1
    59   19   57 1
    60   20   58 1
    61   20   59 1
    62   21   60 1
    63   21   61 1
    64   22   62 1
    65   22   63 1
    66   23   64 1
    67   24   65 1
    68   26   66 1
    69   26   67 1
    70   27   68 1
    71   27   69 1
    72   28   70 1
    73   29   71 1
    74   34   72 1
@<TRIPOS>MOLECULE
1dwc_ligand_125
   72    74     0     0     0
SMALL
USER_CHARGES

mmff94s_NoEstat = 77.98
@<TRIPOS>ATOM
      1 C1          2.5114   -5.6807   -0.0973 C.ar      1 <0>        -0.1945
      2 C2          3.8673   -5.6123    0.2155 C.ar      1 <0>        -0.0294
      3 C3          1.5608   -5.5920    0.9152 C.ar      1 <0>        -0.0143
      4 C4          4.2812   -5.4584    1.5465 C.ar      1 <0>        -0.1552
      5 C5          3.3248   -5.3390    2.5738 C.ar      1 <0>         0.3076
      6 C6          1.9651   -5.4258    2.2408 C.ar      1 <0>        -0.4908
      7 C7         -1.4628    0.1636    1.3526 C.2       1 <0>         0.5994
      8 C8          0.8654   -1.4427    3.2413 C.2       1 <0>         0.6462
      9 C9         -4.4066   -3.3472    6.8497 C.cat     1 <0>         0.6305
     10 C10         5.7550   -5.3781    1.8646 C.3       1 <0>        -0.0319
     11 C11         2.1918    0.8805    0.7195 C.3       1 <0>        -0.0918
     12 C12         0.2821   -0.3679   -0.3105 C.3       1 <0>        -0.0841
     13 C13         1.6113    0.6116    2.1020 C.3       1 <0>         0.0870
     14 C14         5.0872   -4.9119    4.2416 C.3       1 <0>         0.2023
     15 C15        -0.2506   -0.7126    1.0828 C.3       1 <0>         0.0778
     16 C16         6.0568   -5.6843    3.3406 C.3       1 <0>        -0.0746
     17 C17         1.0859    0.9390   -0.3376 C.3       1 <0>        -0.0681
     18 C18         6.0291   -7.1895    3.6296 C.3       1 <0>        -0.0944
     19 C19         1.6740    1.1859   -1.7255 C.3       1 <0>        -0.0918
     20 C20        -1.0866   -2.1427    5.4567 C.3       1 <0>        -0.1192
     21 C21        -1.3133   -2.4479    3.9716 C.3       1 <0>        -0.0916
     22 C22        -2.3970   -1.9935    6.2196 C.3       1 <0>         0.1883
     23 C23        -0.0078   -2.6730    3.2260 C.3       1 <0>         0.1952
     24 N1          3.7051   -5.1932    3.9020 N.pl3     1 <0>        -0.7670
     25 N2          0.7744   -0.5925    2.1333 N.am      1 <0>        -0.4509
     26 N3         -5.1439   -4.5252    6.7900 N.pl3     1 <0>        -0.8477
     27 N4         -4.8938   -2.2796    7.5959 N.pl3     1 <0>        -0.8633
     28 N5         -3.1876   -3.2152    6.1760 N.pl3     1 <0>        -0.7419
     29 N6          0.7961   -3.6905    3.9267 N.pl3     1 <0>        -0.8860
     30 O1         -1.4385    1.2323    1.9447 O.2       1 <0>        -0.5199
     31 O2          1.6103   -1.2468    4.2054 O.2       1 <0>        -0.6131
     32 O3         -0.5724   -5.5617    2.8045 O.2       1 <0>        -0.6576
     33 O4          1.1151   -6.1600    4.5705 O.2       1 <0>        -0.6482
     34 O5         -2.5854   -0.4037    0.8474 O.3       1 <0>        -0.6303
     35 S1          0.6998   -5.3249    3.4597 S.o2      1 <0>         1.5193
     36 H1          2.1966   -5.8064   -1.1298 H         1 <0>         0.1426
     37 H2          4.6032   -5.6854   -0.5818 H         1 <0>         0.1398
     38 H3          0.5018   -5.6500    0.6842 H         1 <0>         0.1599
     39 H4          6.3190   -6.0672    1.2240 H         1 <0>         0.0574
     40 H5          6.0915   -4.3598    1.6315 H         1 <0>         0.0629
     41 H6          2.7495    1.8244    0.7335 H         1 <0>         0.0614
     42 H7          2.9066    0.0878    0.4640 H         1 <0>         0.0593
     43 H8          0.9336   -1.1873   -0.6438 H         1 <0>         0.0841
     44 H9         -0.5414   -0.3095   -1.0336 H         1 <0>         0.0679
     45 H10         2.4269    0.5309    2.8282 H         1 <0>         0.0826
     46 H11         0.9807    1.4504    2.4206 H         1 <0>         0.0383
     47 H12         5.2594   -5.1654    5.2935 H         1 <0>         0.0556
     48 H13         5.2655   -3.8345    4.1379 H         1 <0>         0.0415
     49 H14        -0.6325   -1.7382    1.0612 H         1 <0>         0.0851
     50 H15         7.0777   -5.3469    3.5580 H         1 <0>         0.0639
     51 H16         0.4173    1.7778   -0.1080 H         1 <0>         0.0584
     52 H17         5.6697   -7.7420    2.7563 H         1 <0>         0.0401
     53 H18         7.0311   -7.5518    3.8781 H         1 <0>         0.0440
     54 H19         5.3653   -7.4070    4.4717 H         1 <0>         0.0459
     55 H20         1.1081    0.6390   -2.4855 H         1 <0>         0.0456
     56 H21         1.6425    2.2512   -1.9725 H         1 <0>         0.0366
     57 H22         2.7156    0.8534   -1.7662 H         1 <0>         0.0474
     58 H23        -0.4913   -2.9455    5.9081 H         1 <0>         0.0800
     59 H24        -0.5143   -1.2136    5.5600 H         1 <0>         0.0681
     60 H25        -1.8840   -1.6286    3.5148 H         1 <0>         0.0740
     61 H26        -1.9315   -3.3495    3.8758 H         1 <0>         0.0631
     62 H27        -3.0022   -1.1781    5.8107 H         1 <0>         0.0970
     63 H28        -2.1935   -1.7693    7.2716 H         1 <0>         0.0725
     64 H29        -0.1638   -2.9774    2.1921 H         1 <0>         0.0839
     65 H30         2.9820   -5.0361    4.5933 H         1 <0>         0.4531
     66 H31        -4.8283   -5.3304    6.2558 H         1 <0>         0.4798
     67 H32        -6.0298   -4.6126    7.2825 H         1 <0>         0.4881
     68 H33        -4.3804   -1.4040    7.6609 H         1 <0>         0.4801
     69 H34        -5.7763   -2.3468    8.0972 H         1 <0>         0.4806
     70 H35        -2.8559   -4.0162    5.6365 H         1 <0>         0.4689
     71 H36         1.6533   -3.3509    4.3757 H         1 <0>         0.4505
     72 H37        -3.3805    0.1466    1.0133 H         1 <0>         0.4443
@<TRIPOS>BOND
     1    1    2 ar
     2    1    3 ar
     3    2    4 ar
     4    3    6 ar
     5    4    5 ar
     6    4   10 1
     7    5    6 ar
     8    5   24 1
     9    6   35 1
    10    7   15 1
    11    7   30 2
    12    7   34 1
    13    8   23 1
    14    8   25 am
    15    8   31 2
    16    9   26 1
    17    9   27 1
    18    9   28 1
    19   10   16 1
    20   11   13 1
    21   11   17 1
    22   12   15 1
    23   12   17 1
    24   13   25 1
    25   14   16 1
    26   14   24 1
    27   15   25 1
    28   16   18 1
    29   17   19 1
    30   20   21 1
    31   20   22 1
    32   21   23 1
    33   22   28 1
    34   23   29 1
    35   29   35 1
    36   32   35 2
    37   33   35 2
    38    1   36 1
    39    2   37 1
    40    3   38 1
    41   10   39 1
    42   10   40 1
    43   11   41 1
    44   11   42 1
    45   12   43 1
    46   12   44 1
    47   13   45 1
    48   13   46 1
    49   14   47 1
    50   14   48 1
    51   15   49 1
    52   16   50 1
    53   17   51 1
    54   18   52 1
    55   18   53 1
    56   18   54 1
    57   19   55 1
    58   19   56 1
    59   19   57 1
    60   20   58 1
    61   20   59 1
    62   21   60 1
    63   21   61 1
    64   22   62 1
    65   22   63 1
    66   23   64 1
    67   24   65 1
    68   26   66 1
    69   26   67 1
    70   27   68 1
    71   27   69 1
    72   28   70 1
    73   29   71 1
    74   34   72 1
@<TRIPOS>MOLECULE
1dwc_ligand_126
   72    74     0     0     0
SMALL
USER_CHARGES

mmff94s_NoEstat = 77.99
@<TRIPOS>ATOM
      1 C1         -3.5298   -6.2535    4.3510 C.ar      1 <0>        -0.1945
      2 C2         -4.3901   -6.3642    3.2606 C.ar      1 <0>        -0.0294
      3 C3         -2.9628   -5.0220    4.6653 C.ar      1 <0>        -0.0143
      4 C4         -4.6918   -5.2398    2.4790 C.ar      1 <0>        -0.1552
      5 C5         -4.0992   -3.9956    2.7730 C.ar      1 <0>         0.3076
      6 C6         -3.2482   -3.9013    3.8837 C.ar      1 <0>        -0.4908
      7 C7          4.0428   -2.6510    3.1279 C.2       1 <0>         0.5994
      8 C8          0.8654   -1.4427    3.2413 C.2       1 <0>         0.6462
      9 C9          1.7699   -7.1193    0.0630 C.cat     1 <0>         0.6305
     10 C10        -5.6204   -5.3796    1.2965 C.3       1 <0>        -0.0319
     11 C11         3.0349   -0.4758    6.0475 C.3       1 <0>        -0.0918
     12 C12         3.4817   -2.8819    5.5206 C.3       1 <0>        -0.0841
     13 C13         2.5314   -0.2662    4.6251 C.3       1 <0>         0.0870
     14 C14        -5.1062   -2.9837    0.7664 C.3       1 <0>         0.2023
     15 C15         2.8926   -2.6899    4.1206 C.3       1 <0>         0.0778
     16 C16        -6.2232   -4.0248    0.8929 C.3       1 <0>        -0.0746
     17 C17         4.0802   -1.5931    6.1000 C.3       1 <0>        -0.0681
     18 C18        -7.0091   -4.1462   -0.4097 C.3       1 <0>        -0.0944
     19 C19         4.5654   -1.8157    7.5311 C.3       1 <0>        -0.0918
     20 C20        -0.5404   -4.8511    2.0458 C.3       1 <0>        -0.1192
     21 C21         0.3004   -3.5693    2.0376 C.3       1 <0>        -0.0916
     22 C22        -0.1768   -5.7847    0.8978 C.3       1 <0>         0.1883
     23 C23        -0.0078   -2.6730    3.2260 C.3       1 <0>         0.1952
     24 N1         -4.3801   -2.8644    2.0167 N.pl3     1 <0>        -0.7670
     25 N2          2.0252   -1.5038    4.0223 N.am      1 <0>        -0.4509
     26 N3          3.1011   -7.5120    0.1550 N.pl3     1 <0>        -0.8477
     27 N4          0.9786   -7.6393   -0.9556 N.pl3     1 <0>        -0.8633
     28 N5          1.2122   -6.2141    0.9723 N.pl3     1 <0>        -0.7419
     29 N6         -1.3760   -2.1385    3.1042 N.pl3     1 <0>        -0.8860
     30 O1          4.8907   -3.5219    3.0017 O.2       1 <0>        -0.5199
     31 O2          0.5240   -0.4555    2.5844 O.2       1 <0>        -0.6131
     32 O3         -3.5166   -1.3454    4.2968 O.2       1 <0>        -0.6576
     33 O4         -1.7865   -2.6277    5.5955 O.2       1 <0>        -0.6482
     34 O5          4.0050   -1.5108    2.3959 O.3       1 <0>        -0.6303
     35 S1         -2.5018   -2.3799    4.3583 S.o2      1 <0>         1.5193
     36 H1         -3.3049   -7.1268    4.9571 H         1 <0>         0.1426
     37 H2         -4.8309   -7.3297    3.0242 H         1 <0>         0.1398
     38 H3         -2.2961   -4.9225    5.5159 H         1 <0>         0.1599
     39 H4         -5.0522   -5.8078    0.4610 H         1 <0>         0.0574
     40 H5         -6.4331   -6.0751    1.5397 H         1 <0>         0.0629
     41 H6          3.4643    0.4595    6.4257 H         1 <0>         0.0614
     42 H7          2.1893   -0.7290    6.6997 H         1 <0>         0.0593
     43 H8          2.6805   -3.2276    6.1882 H         1 <0>         0.0841
     44 H9          4.2439   -3.6714    5.5123 H         1 <0>         0.0679
     45 H10         1.7550    0.5058    4.6255 H         1 <0>         0.0826
     46 H11         3.3431    0.0962    3.9827 H         1 <0>         0.0383
     47 H12        -4.4091   -3.2616   -0.0338 H         1 <0>         0.0556
     48 H13        -5.5272   -2.0065    0.5046 H         1 <0>         0.0415
     49 H14         2.3173   -3.5850    3.8636 H         1 <0>         0.0851
     50 H15        -6.9191   -3.7005    1.6784 H         1 <0>         0.0639
     51 H16         4.9487   -1.2974    5.4988 H         1 <0>         0.0584
     52 H17        -7.6317   -3.2604   -0.5670 H         1 <0>         0.0401
     53 H18        -6.3292   -4.2450   -1.2612 H         1 <0>         0.0440
     54 H19        -7.6604   -5.0250   -0.3851 H         1 <0>         0.0459
     55 H20         4.4326   -2.8615    7.8238 H         1 <0>         0.0456
     56 H21         5.6267   -1.5650    7.6207 H         1 <0>         0.0366
     57 H22         4.0032   -1.1886    8.2295 H         1 <0>         0.0474
     58 H23        -0.4002   -5.3741    2.9994 H         1 <0>         0.0800
     59 H24        -1.6035   -4.5964    1.9658 H         1 <0>         0.0681
     60 H25         0.1357   -3.0322    1.0943 H         1 <0>         0.0740
     61 H26         1.3654   -3.8328    2.0643 H         1 <0>         0.0631
     62 H27        -0.3350   -5.3004   -0.0711 H         1 <0>         0.0970
     63 H28        -0.8024   -6.6822    0.9336 H         1 <0>         0.0725
     64 H29         0.1003   -3.1895    4.1787 H         1 <0>         0.0839
     65 H30        -3.8731   -2.0116    2.2195 H         1 <0>         0.4531
     66 H31         3.7173   -7.1568    0.8813 H         1 <0>         0.4798
     67 H32         3.4989   -8.1703   -0.5108 H         1 <0>         0.4881
     68 H33         0.0016   -7.3736   -1.0521 H         1 <0>         0.4801
     69 H34         1.3562   -8.3001   -1.6305 H         1 <0>         0.4806
     70 H35         1.8180   -5.8498    1.7091 H         1 <0>         0.4689
     71 H36        -1.4850   -1.3266    2.4871 H         1 <0>         0.4505
     72 H37         4.7415   -1.4658    1.7496 H         1 <0>         0.4443
@<TRIPOS>BOND
     1    1    2 ar
     2    1    3 ar
     3    2    4 ar
     4    3    6 ar
     5    4    5 ar
     6    4   10 1
     7    5    6 ar
     8    5   24 1
     9    6   35 1
    10    7   15 1
    11    7   30 2
    12    7   34 1
    13    8   23 1
    14    8   25 am
    15    8   31 2
    16    9   26 1
    17    9   27 1
    18    9   28 1
    19   10   16 1
    20   11   13 1
    21   11   17 1
    22   12   15 1
    23   12   17 1
    24   13   25 1
    25   14   16 1
    26   14   24 1
    27   15   25 1
    28   16   18 1
    29   17   19 1
    30   20   21 1
    31   20   22 1
    32   21   23 1
    33   22   28 1
    34   23   29 1
    35   29   35 1
    36   32   35 2
    37   33   35 2
    38    1   36 1
    39    2   37 1
    40    3   38 1
    41   10   39 1
    42   10   40 1
    43   11   41 1
    44   11   42 1
    45   12   43 1
    46   12   44 1
    47   13   45 1
    48   13   46 1
    49   14   47 1
    50   14   48 1
    51   15   49 1
    52   16   50 1
    53   17   51 1
    54   18   52 1
    55   18   53 1
    56   18   54 1
    57   19   55 1
    58   19   56 1
    59   19   57 1
    60   20   58 1
    61   20   59 1
    62   21   60 1
    63   21   61 1
    64   22   62 1
    65   22   63 1
    66   23   64 1
    67   24   65 1
    68   26   66 1
    69   26   67 1
    70   27   68 1
    71   27   69 1
    72   28   70 1
    73   29   71 1
    74   34   72 1
@<TRIPOS>MOLECULE
1dwc_ligand_127
   72    74     0     0     0
SMALL
USER_CHARGES

mmff94s_NoEstat = 77.99
@<TRIPOS>ATOM
      1 C1         -2.2959   -2.3538    7.8119 C.ar      1 <0>        -0.1945
      2 C2         -2.6720   -1.0237    7.9869 C.ar      1 <0>        -0.0294
      3 C3         -2.3070   -2.9163    6.5390 C.ar      1 <0>        -0.0143
      4 C4         -3.0584   -0.2458    6.8861 C.ar      1 <0>        -0.1552
      5 C5         -3.1002   -0.8160    5.5982 C.ar      1 <0>         0.3076
      6 C6         -2.7033   -2.1518    5.4404 C.ar      1 <0>        -0.4908
      7 C7          3.7233   -2.4449    4.7893 C.2       1 <0>         0.5994
      8 C8          0.8654   -1.4427    3.2413 C.2       1 <0>         0.6462
      9 C9          2.8571   -3.2799   -1.0245 C.cat     1 <0>         0.6305
     10 C10        -3.4700    1.1919    7.0953 C.3       1 <0>        -0.0319
     11 C11         1.7658    0.4222    6.2790 C.3       1 <0>        -0.0918
     12 C12         2.2228   -2.0030    6.6989 C.3       1 <0>        -0.0841
     13 C13         1.9003    0.1799    4.7810 C.3       1 <0>         0.0870
     14 C14        -4.0628    1.2474    4.6598 C.3       1 <0>         0.2023
     15 C15         2.2690   -2.2605    5.1905 C.3       1 <0>         0.0778
     16 C16        -3.3611    2.0019    5.7939 C.3       1 <0>        -0.0746
     17 C17         2.6202   -0.5689    7.0736 C.3       1 <0>        -0.0681
     18 C18        -3.9527    3.3976    5.9715 C.3       1 <0>        -0.0944
     19 C19         2.4647   -0.3375    8.5754 C.3       1 <0>        -0.0918
     20 C20         1.7689   -4.0083    2.0091 C.3       1 <0>        -0.1192
     21 C21         0.3004   -3.5693    2.0376 C.3       1 <0>        -0.0916
     22 C22         2.0958   -4.8429    0.7769 C.3       1 <0>         0.1883
     23 C23        -0.0078   -2.6730    3.2260 C.3       1 <0>         0.1952
     24 N1         -3.4782   -0.0694    4.4890 N.pl3     1 <0>        -0.7670
     25 N2          1.5999   -1.2067    4.4091 N.am      1 <0>        -0.4509
     26 N3          2.6214   -2.5784   -2.2023 N.pl3     1 <0>        -0.8477
     27 N4          4.0963   -3.1655   -0.4037 N.pl3     1 <0>        -0.8633
     28 N5          1.8751   -4.0962   -0.4532 N.pl3     1 <0>        -0.7419
     29 N6         -1.3760   -2.1385    3.1042 N.pl3     1 <0>        -0.8860
     30 O1          4.4523   -1.5599    4.3665 O.2       1 <0>        -0.5199
     31 O2          0.8891   -0.7105    2.2483 O.2       1 <0>        -0.6131
     32 O3         -2.3304   -4.3295    4.0644 O.2       1 <0>        -0.6576
     33 O4         -3.9087   -2.5768    3.1921 O.2       1 <0>        -0.6482
     34 O5          4.1079   -3.7331    4.9617 O.3       1 <0>        -0.6303
     35 S1         -2.6746   -2.9347    3.8647 S.o2      1 <0>         1.5193
     36 H1         -1.9909   -2.9498    8.6676 H         1 <0>         0.1426
     37 H2         -2.6574   -0.5917    8.9847 H         1 <0>         0.1398
     38 H3         -2.0103   -3.9495    6.3897 H         1 <0>         0.1599
     39 H4         -4.5027    1.2042    7.4664 H         1 <0>         0.0574
     40 H5         -2.8343    1.6552    7.8598 H         1 <0>         0.0629
     41 H6          2.0669    1.4503    6.5123 H         1 <0>         0.0614
     42 H7          0.7128    0.3207    6.5714 H         1 <0>         0.0593
     43 H8          1.1978   -2.1858    7.0494 H         1 <0>         0.0841
     44 H9          2.8666   -2.7151    7.2306 H         1 <0>         0.0679
     45 H10         1.2456    0.8722    4.2416 H         1 <0>         0.0826
     46 H11         2.9258    0.3867    4.4518 H         1 <0>         0.0383
     47 H12        -5.1346    1.1449    4.8705 H         1 <0>         0.0556
     48 H13        -3.9688    1.8032    3.7203 H         1 <0>         0.0415
     49 H14         1.7884   -3.2235    4.9909 H         1 <0>         0.0851
     50 H15        -2.2992    2.1152    5.5368 H         1 <0>         0.0639
     51 H16         3.6763   -0.4106    6.8224 H         1 <0>         0.0584
     52 H17        -3.6607    4.0473    5.1410 H         1 <0>         0.0401
     53 H18        -5.0453    3.3508    6.0047 H         1 <0>         0.0440
     54 H19        -3.5987    3.8493    6.9030 H         1 <0>         0.0459
     55 H20         2.1532   -1.2591    9.0761 H         1 <0>         0.0456
     56 H21         3.4121   -0.0103    9.0142 H         1 <0>         0.0366
     57 H22         1.7112    0.4316    8.7697 H         1 <0>         0.0474
     58 H23         2.4156   -3.1229    2.0318 H         1 <0>         0.0800
     59 H24         1.9949   -4.6013    2.9028 H         1 <0>         0.0681
     60 H25        -0.3448   -4.4577    2.0448 H         1 <0>         0.0740
     61 H26         0.0666   -3.0218    1.1158 H         1 <0>         0.0631
     62 H27         1.4860   -5.7513    0.7413 H         1 <0>         0.0970
     63 H28         3.1484   -5.1425    0.7970 H         1 <0>         0.0725
     64 H29         0.1003   -3.1895    4.1787 H         1 <0>         0.0839
     65 H30        -3.5654   -0.5418    3.5977 H         1 <0>         0.4531
     66 H31         1.7321   -2.6330   -2.6917 H         1 <0>         0.4798
     67 H32         3.3414   -1.9873   -2.6114 H         1 <0>         0.4881
     68 H33         4.3022   -3.6645    0.4583 H         1 <0>         0.4801
     69 H34         4.8291   -2.5786   -0.7952 H         1 <0>         0.4806
     70 H35         0.9755   -4.1600   -0.9320 H         1 <0>         0.4689
     71 H36        -1.4476   -1.1318    2.9219 H         1 <0>         0.4505
     72 H37         5.0446   -3.8732    4.7061 H         1 <0>         0.4443
@<TRIPOS>BOND
     1    1    2 ar
     2    1    3 ar
     3    2    4 ar
     4    3    6 ar
     5    4    5 ar
     6    4   10 1
     7    5    6 ar
     8    5   24 1
     9    6   35 1
    10    7   15 1
    11    7   30 2
    12    7   34 1
    13    8   23 1
    14    8   25 am
    15    8   31 2
    16    9   26 1
    17    9   27 1
    18    9   28 1
    19   10   16 1
    20   11   13 1
    21   11   17 1
    22   12   15 1
    23   12   17 1
    24   13   25 1
    25   14   16 1
    26   14   24 1
    27   15   25 1
    28   16   18 1
    29   17   19 1
    30   20   21 1
    31   20   22 1
    32   21   23 1
    33   22   28 1
    34   23   29 1
    35   29   35 1
    36   32   35 2
    37   33   35 2
    38    1   36 1
    39    2   37 1
    40    3   38 1
    41   10   39 1
    42   10   40 1
    43   11   41 1
    44   11   42 1
    45   12   43 1
    46   12   44 1
    47   13   45 1
    48   13   46 1
    49   14   47 1
    50   14   48 1
    51   15   49 1
    52   16   50 1
    53   17   51 1
    54   18   52 1
    55   18   53 1
    56   18   54 1
    57   19   55 1
    58   19   56 1
    59   19   57 1
    60   20   58 1
    61   20   59 1
    62   21   60 1
    63   21   61 1
    64   22   62 1
    65   22   63 1
    66   23   64 1
    67   24   65 1
    68   26   66 1
    69   26   67 1
    70   27   68 1
    71   27   69 1
    72   28   70 1
    73   29   71 1
    74   34   72 1
@<TRIPOS>MOLECULE
1dwc_ligand_128
   72    74     0     0     0
SMALL
USER_CHARGES

mmff94s_NoEstat = 78.00
@<TRIPOS>ATOM
      1 C1         -1.2513   -4.6123    7.0409 C.ar      1 <0>        -0.1945
      2 C2         -2.2943   -5.5269    6.9103 C.ar      1 <0>        -0.0294
      3 C3         -1.2571   -3.4413    6.2888 C.ar      1 <0>        -0.0143
      4 C4         -3.3535   -5.2725    6.0273 C.ar      1 <0>        -0.1552
      5 C5         -3.3523   -4.1031    5.2411 C.ar      1 <0>         0.3076
      6 C6         -2.3015   -3.1877    5.3982 C.ar      1 <0>        -0.4908
      7 C7          4.0428   -2.6510    3.1279 C.2       1 <0>         0.5994
      8 C8          0.8654   -1.4427    3.2413 C.2       1 <0>         0.6462
      9 C9          1.7699   -7.1193    0.0630 C.cat     1 <0>         0.6305
     10 C10        -4.4718   -6.2782    5.8932 C.3       1 <0>        -0.0319
     11 C11         3.0349   -0.4758    6.0475 C.3       1 <0>        -0.0918
     12 C12         3.4817   -2.8819    5.5206 C.3       1 <0>        -0.0841
     13 C13         2.5314   -0.2662    4.6251 C.3       1 <0>         0.0870
     14 C14        -5.3794   -4.8387    4.0520 C.3       1 <0>         0.2023
     15 C15         2.8926   -2.6899    4.1206 C.3       1 <0>         0.0778
     16 C16        -5.7397   -5.6335    5.3114 C.3       1 <0>        -0.0746
     17 C17         4.0802   -1.5931    6.1000 C.3       1 <0>        -0.0681
     18 C18        -6.7970   -6.6915    5.0078 C.3       1 <0>        -0.0944
     19 C19         4.5654   -1.8157    7.5311 C.3       1 <0>        -0.0918
     20 C20        -0.5404   -4.8511    2.0458 C.3       1 <0>        -0.1192
     21 C21         0.3004   -3.5693    2.0376 C.3       1 <0>        -0.0916
     22 C22        -0.1768   -5.7847    0.8978 C.3       1 <0>         0.1883
     23 C23        -0.0078   -2.6730    3.2260 C.3       1 <0>         0.1952
     24 N1         -4.3886   -3.8243    4.3586 N.pl3     1 <0>        -0.7670
     25 N2          2.0252   -1.5038    4.0223 N.am      1 <0>        -0.4509
     26 N3          3.1011   -7.5120    0.1550 N.pl3     1 <0>        -0.8477
     27 N4          0.9786   -7.6393   -0.9556 N.pl3     1 <0>        -0.8633
     28 N5          1.2122   -6.2141    0.9723 N.pl3     1 <0>        -0.7419
     29 N6         -1.3760   -2.1385    3.1042 N.pl3     1 <0>        -0.8860
     30 O1          4.5855   -1.6340    2.7222 O.2       1 <0>        -0.5199
     31 O2          0.5240   -0.4555    2.5844 O.2       1 <0>        -0.6131
     32 O3         -3.5960   -1.3232    4.1243 O.2       1 <0>        -0.6576
     33 O4         -1.4314   -0.7555    5.2719 O.2       1 <0>        -0.6482
     34 O5          4.3885   -3.9048    2.7464 O.3       1 <0>        -0.6303
     35 S1         -2.2397   -1.6774    4.4970 S.o2      1 <0>         1.5193
     36 H1         -0.4366   -4.8116    7.7316 H         1 <0>         0.1426
     37 H2         -2.2830   -6.4379    7.5040 H         1 <0>         0.1398
     38 H3         -0.4531   -2.7188    6.3867 H         1 <0>         0.1599
     39 H4         -4.1265   -7.0929    5.2439 H         1 <0>         0.0574
     40 H5         -4.7068   -6.7090    6.8742 H         1 <0>         0.0629
     41 H6          3.4643    0.4595    6.4257 H         1 <0>         0.0614
     42 H7          2.1893   -0.7290    6.6997 H         1 <0>         0.0593
     43 H8          2.6805   -3.2276    6.1882 H         1 <0>         0.0841
     44 H9          4.2439   -3.6714    5.5123 H         1 <0>         0.0679
     45 H10         1.7550    0.5058    4.6255 H         1 <0>         0.0826
     46 H11         3.3431    0.0962    3.9827 H         1 <0>         0.0383
     47 H12        -4.9880   -5.5059    3.2740 H         1 <0>         0.0556
     48 H13        -6.2720   -4.3523    3.6429 H         1 <0>         0.0415
     49 H14         2.3173   -3.5850    3.8636 H         1 <0>         0.0851
     50 H15        -6.1574   -4.9424    6.0561 H         1 <0>         0.0639
     51 H16         4.9487   -1.2974    5.4988 H         1 <0>         0.0584
     52 H17        -7.7694   -6.2229    4.8294 H         1 <0>         0.0401
     53 H18        -6.5224   -7.2651    4.1175 H         1 <0>         0.0440
     54 H19        -6.8980   -7.3858    5.8473 H         1 <0>         0.0459
     55 H20         4.4326   -2.8615    7.8238 H         1 <0>         0.0456
     56 H21         5.6267   -1.5650    7.6207 H         1 <0>         0.0366
     57 H22         4.0032   -1.1886    8.2295 H         1 <0>         0.0474
     58 H23        -0.4002   -5.3741    2.9994 H         1 <0>         0.0800
     59 H24        -1.6035   -4.5964    1.9658 H         1 <0>         0.0681
     60 H25         0.1357   -3.0322    1.0943 H         1 <0>         0.0740
     61 H26         1.3654   -3.8328    2.0643 H         1 <0>         0.0631
     62 H27        -0.3350   -5.3004   -0.0711 H         1 <0>         0.0970
     63 H28        -0.8024   -6.6822    0.9336 H         1 <0>         0.0725
     64 H29         0.1003   -3.1895    4.1787 H         1 <0>         0.0839
     65 H30        -4.3065   -3.0109    3.7612 H         1 <0>         0.4531
     66 H31         3.7173   -7.1568    0.8813 H         1 <0>         0.4798
     67 H32         3.4989   -8.1703   -0.5108 H         1 <0>         0.4881
     68 H33         0.0016   -7.3736   -1.0521 H         1 <0>         0.4801
     69 H34         1.3562   -8.3001   -1.6305 H         1 <0>         0.4806
     70 H35         1.8180   -5.8498    1.7091 H         1 <0>         0.4689
     71 H36        -1.6042   -1.6955    2.2078 H         1 <0>         0.4505
     72 H37         5.1292   -3.9010    2.1032 H         1 <0>         0.4443
@<TRIPOS>BOND
     1    1    2 ar
     2    1    3 ar
     3    2    4 ar
     4    3    6 ar
     5    4    5 ar
     6    4   10 1
     7    5    6 ar
     8    5   24 1
     9    6   35 1
    10    7   15 1
    11    7   30 2
    12    7   34 1
    13    8   23 1
    14    8   25 am
    15    8   31 2
    16    9   26 1
    17    9   27 1
    18    9   28 1
    19   10   16 1
    20   11   13 1
    21   11   17 1
    22   12   15 1
    23   12   17 1
    24   13   25 1
    25   14   16 1
    26   14   24 1
    27   15   25 1
    28   16   18 1
    29   17   19 1
    30   20   21 1
    31   20   22 1
    32   21   23 1
    33   22   28 1
    34   23   29 1
    35   29   35 1
    36   32   35 2
    37   33   35 2
    38    1   36 1
    39    2   37 1
    40    3   38 1
    41   10   39 1
    42   10   40 1
    43   11   41 1
    44   11   42 1
    45   12   43 1
    46   12   44 1
    47   13   45 1
    48   13   46 1
    49   14   47 1
    50   14   48 1
    51   15   49 1
    52   16   50 1
    53   17   51 1
    54   18   52 1
    55   18   53 1
    56   18   54 1
    57   19   55 1
    58   19   56 1
    59   19   57 1
    60   20   58 1
    61   20   59 1
    62   21   60 1
    63   21   61 1
    64   22   62 1
    65   22   63 1
    66   23   64 1
    67   24   65 1
    68   26   66 1
    69   26   67 1
    70   27   68 1
    71   27   69 1
    72   28   70 1
    73   29   71 1
    74   34   72 1
@<TRIPOS>MOLECULE
1dwc_ligand_129
   72    74     0     0     0
SMALL
USER_CHARGES

mmff94s_NoEstat = 78.02
@<TRIPOS>ATOM
      1 C1          4.1725   -3.9457    0.5164 C.ar      1 <0>        -0.1945
      2 C2          5.2841   -3.7273    1.3275 C.ar      1 <0>        -0.0294
      3 C3          2.9716   -4.3618    1.0830 C.ar      1 <0>        -0.0143
      4 C4          5.2014   -3.9281    2.7130 C.ar      1 <0>        -0.1552
      5 C5          3.9817   -4.3215    3.2977 C.ar      1 <0>         0.3076
      6 C6          2.8785   -4.5513    2.4628 C.ar      1 <0>        -0.4908
      7 C7         -1.4628    0.1636    1.3526 C.2       1 <0>         0.5994
      8 C8          0.8654   -1.4427    3.2413 C.2       1 <0>         0.6462
      9 C9         -3.9153   -5.7709    1.2312 C.cat     1 <0>         0.6305
     10 C10         6.4147   -3.6782    3.5763 C.3       1 <0>        -0.0319
     11 C11         2.1918    0.8805    0.7195 C.3       1 <0>        -0.0918
     12 C12         0.2821   -0.3679   -0.3105 C.3       1 <0>        -0.0841
     13 C13         1.6113    0.6116    2.1020 C.3       1 <0>         0.0870
     14 C14         4.9375   -4.1225    5.5597 C.3       1 <0>         0.2023
     15 C15        -0.2506   -0.7126    1.0828 C.3       1 <0>         0.0778
     16 C16         6.3180   -4.3739    4.9439 C.3       1 <0>        -0.0746
     17 C17         1.0859    0.9390   -0.3376 C.3       1 <0>        -0.0681
     18 C18         6.6369   -5.8702    4.8481 C.3       1 <0>        -0.0944
     19 C19         1.6740    1.1859   -1.7255 C.3       1 <0>        -0.0918
     20 C20        -2.2331   -3.6727    3.9110 C.3       1 <0>        -0.1192
     21 C21        -1.3133   -2.4479    3.9716 C.3       1 <0>        -0.0916
     22 C22        -2.5436   -4.0884    2.4784 C.3       1 <0>         0.1883
     23 C23        -0.0078   -2.6730    3.2260 C.3       1 <0>         0.1952
     24 N1          3.8720   -4.5353    4.6659 N.pl3     1 <0>        -0.7670
     25 N2          0.7744   -0.5925    2.1333 N.am      1 <0>        -0.4509
     26 N3         -4.7674   -6.8702    1.2149 N.pl3     1 <0>        -0.8477
     27 N4         -3.5313   -5.1930    0.0260 N.pl3     1 <0>        -0.8633
     28 N5         -3.4379   -5.2363    2.4326 N.pl3     1 <0>        -0.7419
     29 N6          0.7961   -3.6905    3.9267 N.pl3     1 <0>        -0.8860
     30 O1         -1.4385    1.2323    1.9447 O.2       1 <0>        -0.5199
     31 O2          1.6103   -1.2468    4.2054 O.2       1 <0>        -0.6131
     32 O3          0.4439   -5.3314    1.9729 O.2       1 <0>        -0.6576
     33 O4          1.5968   -6.1309    4.0600 O.2       1 <0>        -0.6482
     34 O5         -2.5854   -0.4037    0.8474 O.3       1 <0>        -0.6303
     35 S1          1.3247   -5.0804    3.0977 S.o2      1 <0>         1.5193
     36 H1          4.2441   -3.7946   -0.5573 H         1 <0>         0.1426
     37 H2          6.2192   -3.4050    0.8758 H         1 <0>         0.1398
     38 H3          2.1006   -4.5409    0.4604 H         1 <0>         0.1599
     39 H4          7.3229   -4.0105    3.0588 H         1 <0>         0.0574
     40 H5          6.4984   -2.5945    3.7281 H         1 <0>         0.0629
     41 H6          2.7495    1.8244    0.7335 H         1 <0>         0.0614
     42 H7          2.9066    0.0878    0.4640 H         1 <0>         0.0593
     43 H8          0.9336   -1.1873   -0.6438 H         1 <0>         0.0841
     44 H9         -0.5414   -0.3095   -1.0336 H         1 <0>         0.0679
     45 H10         2.4269    0.5309    2.8282 H         1 <0>         0.0826
     46 H11         0.9807    1.4504    2.4206 H         1 <0>         0.0383
     47 H12         4.8400   -4.6591    6.5101 H         1 <0>         0.0556
     48 H13         4.8208   -3.0544    5.7810 H         1 <0>         0.0415
     49 H14        -0.6325   -1.7382    1.0612 H         1 <0>         0.0851
     50 H15         7.0781   -3.9378    5.6038 H         1 <0>         0.0639
     51 H16         0.4173    1.7778   -0.1080 H         1 <0>         0.0584
     52 H17         6.7417   -6.1747    3.8024 H         1 <0>         0.0401
     53 H18         7.5719   -6.0982    5.3686 H         1 <0>         0.0440
     54 H19         5.8369   -6.4634    5.3010 H         1 <0>         0.0459
     55 H20         1.1081    0.6390   -2.4855 H         1 <0>         0.0456
     56 H21         1.6425    2.2512   -1.9725 H         1 <0>         0.0366
     57 H22         2.7156    0.8534   -1.7662 H         1 <0>         0.0474
     58 H23        -1.7621   -4.5101    4.4397 H         1 <0>         0.0800
     59 H24        -3.1768   -3.4520    4.4231 H         1 <0>         0.0681
     60 H25        -1.1204   -2.1894    5.0211 H         1 <0>         0.0740
     61 H26        -1.8263   -1.5854    3.5275 H         1 <0>         0.0631
     62 H27        -1.6292   -4.3436    1.9335 H         1 <0>         0.0970
     63 H28        -3.0347   -3.2659    1.9487 H         1 <0>         0.0725
     64 H29        -0.1638   -2.9774    2.1921 H         1 <0>         0.0839
     65 H30         2.9570   -4.7435    5.0468 H         1 <0>         0.4531
     66 H31        -5.0729   -7.3262    2.0705 H         1 <0>         0.4798
     67 H32        -5.1095   -7.2532    0.3366 H         1 <0>         0.4881
     68 H33        -2.9094   -4.3885    0.0015 H         1 <0>         0.4801
     69 H34        -3.8633   -5.5592   -0.8630 H         1 <0>         0.4806
     70 H35        -3.7374   -5.6822    3.3010 H         1 <0>         0.4689
     71 H36         1.3354   -3.3564    4.7325 H         1 <0>         0.4505
     72 H37        -3.3805    0.1466    1.0133 H         1 <0>         0.4443
@<TRIPOS>BOND
     1    1    2 ar
     2    1    3 ar
     3    2    4 ar
     4    3    6 ar
     5    4    5 ar
     6    4   10 1
     7    5    6 ar
     8    5   24 1
     9    6   35 1
    10    7   15 1
    11    7   30 2
    12    7   34 1
    13    8   23 1
    14    8   25 am
    15    8   31 2
    16    9   26 1
    17    9   27 1
    18    9   28 1
    19   10   16 1
    20   11   13 1
    21   11   17 1
    22   12   15 1
    23   12   17 1
    24   13   25 1
    25   14   16 1
    26   14   24 1
    27   15   25 1
    28   16   18 1
    29   17   19 1
    30   20   21 1
    31   20   22 1
    32   21   23 1
    33   22   28 1
    34   23   29 1
    35   29   35 1
    36   32   35 2
    37   33   35 2
    38    1   36 1
    39    2   37 1
    40    3   38 1
    41   10   39 1
    42   10   40 1
    43   11   41 1
    44   11   42 1
    45   12   43 1
    46   12   44 1
    47   13   45 1
    48   13   46 1
    49   14   47 1
    50   14   48 1
    51   15   49 1
    52   16   50 1
    53   17   51 1
    54   18   52 1
    55   18   53 1
    56   18   54 1
    57   19   55 1
    58   19   56 1
    59   19   57 1
    60   20   58 1
    61   20   59 1
    62   21   60 1
    63   21   61 1
    64   22   62 1
    65   22   63 1
    66   23   64 1
    67   24   65 1
    68   26   66 1
    69   26   67 1
    70   27   68 1
    71   27   69 1
    72   28   70 1
    73   29   71 1
    74   34   72 1
@<TRIPOS>MOLECULE
1dwc_ligand_130
   72    74     0     0     0
SMALL
USER_CHARGES

mmff94s_NoEstat = 78.02
@<TRIPOS>ATOM
      1 C1          4.5626   -6.2396   -3.1257 C.ar      1 <0>        -0.1945
      2 C2          3.6098   -7.1989   -2.7894 C.ar      1 <0>        -0.0294
      3 C3          4.1569   -4.9818   -3.5618 C.ar      1 <0>        -0.0143
      4 C4          2.2424   -6.9031   -2.8839 C.ar      1 <0>        -0.1552
      5 C5          1.8233   -5.6419   -3.3522 C.ar      1 <0>         0.3076
      6 C6          2.7974   -4.6848   -3.6711 C.ar      1 <0>        -0.4908
      7 C7          0.5484   -0.8946    1.4535 C.2       1 <0>         0.5994
      8 C8          2.9466   -1.3973   -0.6457 C.2       1 <0>         0.6462
      9 C9          8.2869   -3.0539    0.3474 C.cat     1 <0>         0.6305
     10 C10         1.2236   -7.9574   -2.5224 C.3       1 <0>        -0.0319
     11 C11         1.0071   -4.1523    1.0299 C.3       1 <0>        -0.0918
     12 C12         1.8830   -2.5004    2.7729 C.3       1 <0>        -0.0841
     13 C13         2.2320   -3.6460    0.2757 C.3       1 <0>         0.0870
     14 C14        -0.5345   -6.3513   -3.3071 C.3       1 <0>         0.2023
     15 C15         1.9200   -1.5343    1.5913 C.3       1 <0>         0.0778
     16 C16        -0.1411   -7.3305   -2.1962 C.3       1 <0>        -0.0746
     17 C17         1.0079   -3.7392    2.5107 C.3       1 <0>        -0.0681
     18 C18        -1.2052   -8.4095   -2.0149 C.3       1 <0>        -0.0944
     19 C19         1.4463   -4.8953    3.4115 C.3       1 <0>        -0.0918
     20 C20         5.7415   -1.0578   -1.6401 C.3       1 <0>        -0.1192
     21 C21         4.5564   -1.3488   -2.5679 C.3       1 <0>        -0.0916
     22 C22         6.4279   -2.3331   -1.1666 C.3       1 <0>         0.1883
     23 C23         3.4544   -2.1251   -1.8653 C.3       1 <0>         0.1952
     24 N1          0.4755   -5.3205   -3.4555 N.pl3     1 <0>        -0.7670
     25 N2          2.3654   -2.1840    0.3531 N.am      1 <0>        -0.4509
     26 N3          9.3421   -2.7528    1.2022 N.pl3     1 <0>        -0.8477
     27 N4          7.9744   -4.3862    0.0994 N.pl3     1 <0>        -0.8633
     28 N5          7.5354   -2.0461   -0.2663 N.pl3     1 <0>        -0.7419
     29 N6          2.2741   -2.2179   -2.7432 N.pl3     1 <0>        -0.8860
     30 O1         -0.0257   -0.2688    2.3322 O.2       1 <0>        -0.5199
     31 O2          3.0580   -0.1705   -0.5795 O.2       1 <0>        -0.6131
     32 O3          3.4786   -2.5500   -4.9955 O.2       1 <0>        -0.6576
     33 O4          1.0452   -3.1536   -4.7996 O.2       1 <0>        -0.6482
     34 O5          0.0400   -1.1141    0.2163 O.3       1 <0>        -0.6303
     35 S1          2.3700   -3.0669   -4.2159 S.o2      1 <0>         1.5193
     36 H1          5.6208   -6.4721   -3.0440 H         1 <0>         0.1426
     37 H2          3.9359   -8.1780   -2.4467 H         1 <0>         0.1398
     38 H3          4.8901   -4.2246   -3.8207 H         1 <0>         0.1599
     39 H4          1.1317   -8.6518   -3.3671 H         1 <0>         0.0574
     40 H5          1.5711   -8.5308   -1.6542 H         1 <0>         0.0629
     41 H6          0.1116   -3.7326    0.5525 H         1 <0>         0.0614
     42 H7          0.9264   -5.2409    0.9288 H         1 <0>         0.0593
     43 H8          2.9117   -2.8226    2.9853 H         1 <0>         0.0841
     44 H9          1.5267   -1.9929    3.6785 H         1 <0>         0.0679
     45 H10         3.1493   -4.0774    0.6933 H         1 <0>         0.0826
     46 H11         2.1726   -3.9558   -0.7722 H         1 <0>         0.0383
     47 H12        -0.6578   -6.8796   -4.2606 H         1 <0>         0.0556
     48 H13        -1.4944   -5.8780   -3.0722 H         1 <0>         0.0415
     49 H14         2.6095   -0.7128    1.8202 H         1 <0>         0.0851
     50 H15        -0.0578   -6.7761   -1.2516 H         1 <0>         0.0639
     51 H16        -0.0273   -3.5034    2.7887 H         1 <0>         0.0584
     52 H17        -2.1023   -7.9902   -1.5497 H         1 <0>         0.0401
     53 H18        -1.4866   -8.8384   -2.9813 H         1 <0>         0.0440
     54 H19        -0.8307   -9.2152   -1.3763 H         1 <0>         0.0459
     55 H20         0.5753   -5.4296    3.8024 H         1 <0>         0.0456
     56 H21         2.0638   -5.6051    2.8530 H         1 <0>         0.0366
     57 H22         2.0303   -4.5225    4.2583 H         1 <0>         0.0474
     58 H23         6.4686   -0.4251   -2.1633 H         1 <0>         0.0800
     59 H24         5.3954   -0.5006   -0.7619 H         1 <0>         0.0681
     60 H25         4.9119   -1.8947   -3.4517 H         1 <0>         0.0740
     61 H26         4.1396   -0.4017   -2.9334 H         1 <0>         0.0631
     62 H27         6.8136   -2.9120   -2.0118 H         1 <0>         0.0970
     63 H28         5.7150   -2.9614   -0.6232 H         1 <0>         0.0725
     64 H29         3.7703   -3.1244   -1.5692 H         1 <0>         0.0839
     65 H30         0.2230   -4.4307   -3.8677 H         1 <0>         0.4531
     66 H31         9.6078   -1.7941    1.4112 H         1 <0>         0.4798
     67 H32         9.8840   -3.4919    1.6440 H         1 <0>         0.4881
     68 H33         7.2094   -4.6418   -0.5202 H         1 <0>         0.4801
     69 H34         8.5024   -5.1402    0.5323 H         1 <0>         0.4806
     70 H35         7.7887   -1.0776   -0.0648 H         1 <0>         0.4689
     71 H36         1.3641   -2.1281   -2.2790 H         1 <0>         0.4505
     72 H37        -0.8473   -0.7100    0.1079 H         1 <0>         0.4443
@<TRIPOS>BOND
     1    1    2 ar
     2    1    3 ar
     3    2    4 ar
     4    3    6 ar
     5    4    5 ar
     6    4   10 1
     7    5    6 ar
     8    5   24 1
     9    6   35 1
    10    7   15 1
    11    7   30 2
    12    7   34 1
    13    8   23 1
    14    8   25 am
    15    8   31 2
    16    9   26 1
    17    9   27 1
    18    9   28 1
    19   10   16 1
    20   11   13 1
    21   11   17 1
    22   12   15 1
    23   12   17 1
    24   13   25 1
    25   14   16 1
    26   14   24 1
    27   15   25 1
    28   16   18 1
    29   17   19 1
    30   20   21 1
    31   20   22 1
    32   21   23 1
    33   22   28 1
    34   23   29 1
    35   29   35 1
    36   32   35 2
    37   33   35 2
    38    1   36 1
    39    2   37 1
    40    3   38 1
    41   10   39 1
    42   10   40 1
    43   11   41 1
    44   11   42 1
    45   12   43 1
    46   12   44 1
    47   13   45 1
    48   13   46 1
    49   14   47 1
    50   14   48 1
    51   15   49 1
    52   16   50 1
    53   17   51 1
    54   18   52 1
    55   18   53 1
    56   18   54 1
    57   19   55 1
    58   19   56 1
    59   19   57 1
    60   20   58 1
    61   20   59 1
    62   21   60 1
    63   21   61 1
    64   22   62 1
    65   22   63 1
    66   23   64 1
    67   24   65 1
    68   26   66 1
    69   26   67 1
    70   27   68 1
    71   27   69 1
    72   28   70 1
    73   29   71 1
    74   34   72 1
@<TRIPOS>MOLECULE
1dwc_ligand_131
   72    74     0     0     0
SMALL
USER_CHARGES

mmff94s_NoEstat = 78.02
@<TRIPOS>ATOM
      1 C1         -2.7374   -5.2793   -0.2736 C.ar      1 <0>        -0.1945
      2 C2         -3.2110   -4.3658   -1.2130 C.ar      1 <0>        -0.0294
      3 C3         -2.5916   -4.8947    1.0560 C.ar      1 <0>        -0.0143
      4 C4         -3.5461   -3.0604   -0.8258 C.ar      1 <0>        -0.1552
      5 C5         -3.3740   -2.6546    0.5126 C.ar      1 <0>         0.3076
      6 C6         -2.9106   -3.5930    1.4461 C.ar      1 <0>        -0.4908
      7 C7          2.0323   -3.0842    5.9821 C.2       1 <0>         0.5994
      8 C8          0.8654   -1.4427    3.2413 C.2       1 <0>         0.6462
      9 C9          1.3456   -6.9412   -0.3642 C.cat     1 <0>         0.6305
     10 C10        -4.0509   -2.0814   -1.8586 C.3       1 <0>        -0.0319
     11 C11         3.0911    0.4998    5.4298 C.3       1 <0>        -0.0918
     12 C12         1.5534   -0.8369    6.8842 C.3       1 <0>        -0.0841
     13 C13         2.8818   -0.5022    4.3015 C.3       1 <0>         0.0870
     14 C14        -4.0009   -0.3416   -0.0541 C.3       1 <0>         0.2023
     15 C15         1.2754   -1.7924    5.7207 C.3       1 <0>         0.0778
     16 C16        -4.8257   -0.9262   -1.2054 C.3       1 <0>        -0.0746
     17 C17         2.9339   -0.1724    6.7962 C.3       1 <0>        -0.0681
     18 C18        -5.1690    0.1479   -2.2340 C.3       1 <0>        -0.0944
     19 C19         3.1216    0.8403    7.9242 C.3       1 <0>        -0.0918
     20 C20         1.7689   -4.0083    2.0091 C.3       1 <0>        -0.1192
     21 C21         0.3004   -3.5693    2.0376 C.3       1 <0>        -0.0916
     22 C22         2.0958   -4.8429    0.7769 C.3       1 <0>         0.1883
     23 C23        -0.0078   -2.6730    3.2260 C.3       1 <0>         0.1952
     24 N1         -3.6984   -1.3681    0.9253 N.pl3     1 <0>        -0.7670
     25 N2          1.5999   -1.2067    4.4091 N.am      1 <0>        -0.4509
     26 N3          0.5495   -8.0810   -0.4079 N.pl3     1 <0>        -0.8477
     27 N4          2.2318   -6.6929   -1.4069 N.pl3     1 <0>        -0.8633
     28 N5          1.2730   -6.0418    0.7049 N.pl3     1 <0>        -0.7419
     29 N6         -1.3760   -2.1385    3.1042 N.pl3     1 <0>        -0.8860
     30 O1          3.1450   -3.3455    5.5497 O.2       1 <0>        -0.5199
     31 O2          0.8891   -0.7105    2.2483 O.2       1 <0>        -0.6131
     32 O3         -3.8876   -2.4594    3.5758 O.2       1 <0>        -0.6576
     33 O4         -2.3275   -4.4157    3.8277 O.2       1 <0>        -0.6482
     34 O5          1.3022   -3.9170    6.7635 O.3       1 <0>        -0.6303
     35 S1         -2.7118   -3.1932    3.1483 S.o2      1 <0>         1.5193
     36 H1         -2.4856   -6.2914   -0.5781 H         1 <0>         0.1426
     37 H2         -3.3245   -4.6759   -2.2491 H         1 <0>         0.1398
     38 H3         -2.2294   -5.5995    1.7977 H         1 <0>         0.1599
     39 H4         -3.1889   -1.6944   -2.4168 H         1 <0>         0.0574
     40 H5         -4.7076   -2.5954   -2.5713 H         1 <0>         0.0629
     41 H6          4.0885    0.9467    5.3426 H         1 <0>         0.0614
     42 H7          2.3630    1.3153    5.3324 H         1 <0>         0.0593
     43 H8          0.7851   -0.0517    6.8776 H         1 <0>         0.0841
     44 H9          1.4567   -1.3607    7.8437 H         1 <0>         0.0679
     45 H10         2.9560    0.0148    3.3392 H         1 <0>         0.0826
     46 H11         3.6704   -1.2643    4.3172 H         1 <0>         0.0383
     47 H12        -3.0647    0.0891   -0.4306 H         1 <0>         0.0556
     48 H13        -4.5550    0.4664    0.4366 H         1 <0>         0.0415
     49 H14         0.2160   -2.0663    5.7460 H         1 <0>         0.0851
     50 H15        -5.7679   -1.3185   -0.7994 H         1 <0>         0.0639
     51 H16         3.7104   -0.9392    6.9078 H         1 <0>         0.0584
     52 H17        -5.9177    0.8380   -1.8337 H         1 <0>         0.0401
     53 H18        -4.2777    0.7235   -2.5010 H         1 <0>         0.0440
     54 H19        -5.5713   -0.3064   -3.1444 H         1 <0>         0.0459
     55 H20         2.2527    0.8404    8.5891 H         1 <0>         0.0456
     56 H21         4.0086    0.5961    8.5164 H         1 <0>         0.0366
     57 H22         3.2450    1.8489    7.5186 H         1 <0>         0.0474
     58 H23         2.4156   -3.1229    2.0318 H         1 <0>         0.0800
     59 H24         1.9949   -4.6013    2.9028 H         1 <0>         0.0681
     60 H25        -0.3448   -4.4577    2.0448 H         1 <0>         0.0740
     61 H26         0.0666   -3.0218    1.1158 H         1 <0>         0.0631
     62 H27         3.1472   -5.1474    0.7729 H         1 <0>         0.0970
     63 H28         1.9091   -4.2592   -0.1301 H         1 <0>         0.0725
     64 H29         0.1003   -3.1895    4.1787 H         1 <0>         0.0839
     65 H30        -3.4869   -1.1007    1.8788 H         1 <0>         0.4531
     66 H31        -0.1107   -8.3043    0.3321 H         1 <0>         0.4798
     67 H32         0.6091   -8.7303   -1.1889 H         1 <0>         0.4881
     68 H33         2.8285   -5.8692   -1.4068 H         1 <0>         0.4801
     69 H34         2.3056   -7.3283   -2.1978 H         1 <0>         0.4806
     70 H35         0.6129   -6.2511    1.4553 H         1 <0>         0.4689
     71 H36        -1.5021   -1.1633    3.3956 H         1 <0>         0.4505
     72 H37         1.7734   -4.7586    6.9424 H         1 <0>         0.4443
@<TRIPOS>BOND
     1    1    2 ar
     2    1    3 ar
     3    2    4 ar
     4    3    6 ar
     5    4    5 ar
     6    4   10 1
     7    5    6 ar
     8    5   24 1
     9    6   35 1
    10    7   15 1
    11    7   30 2
    12    7   34 1
    13    8   23 1
    14    8   25 am
    15    8   31 2
    16    9   26 1
    17    9   27 1
    18    9   28 1
    19   10   16 1
    20   11   13 1
    21   11   17 1
    22   12   15 1
    23   12   17 1
    24   13   25 1
    25   14   16 1
    26   14   24 1
    27   15   25 1
    28   16   18 1
    29   17   19 1
    30   20   21 1
    31   20   22 1
    32   21   23 1
    33   22   28 1
    34   23   29 1
    35   29   35 1
    36   32   35 2
    37   33   35 2
    38    1   36 1
    39    2   37 1
    40    3   38 1
    41   10   39 1
    42   10   40 1
    43   11   41 1
    44   11   42 1
    45   12   43 1
    46   12   44 1
    47   13   45 1
    48   13   46 1
    49   14   47 1
    50   14   48 1
    51   15   49 1
    52   16   50 1
    53   17   51 1
    54   18   52 1
    55   18   53 1
    56   18   54 1
    57   19   55 1
    58   19   56 1
    59   19   57 1
    60   20   58 1
    61   20   59 1
    62   21   60 1
    63   21   61 1
    64   22   62 1
    65   22   63 1
    66   23   64 1
    67   24   65 1
    68   26   66 1
    69   26   67 1
    70   27   68 1
    71   27   69 1
    72   28   70 1
    73   29   71 1
    74   34   72 1
@<TRIPOS>MOLECULE
1dwc_ligand_132
   72    74     0     0     0
SMALL
USER_CHARGES

mmff94s_NoEstat = 78.05
@<TRIPOS>ATOM
      1 C1          6.5406    1.4245   -2.2182 C.ar      1 <0>        -0.1945
      2 C2          6.6985    1.8302   -0.8947 C.ar      1 <0>        -0.0294
      3 C3          6.3835    0.0742   -2.5155 C.ar      1 <0>        -0.0143
      4 C4          6.7040    0.8848    0.1410 C.ar      1 <0>        -0.1552
      5 C5          6.5167   -0.4809   -0.1490 C.ar      1 <0>         0.3076
      6 C6          6.3751   -0.8712   -1.4886 C.ar      1 <0>        -0.4908
      7 C7          1.3468    0.6177    1.3014 C.2       1 <0>         0.5994
      8 C8          2.9466   -1.3973   -0.6457 C.2       1 <0>         0.6462
      9 C9          2.3421   -0.8722   -6.0873 C.cat     1 <0>         0.6305
     10 C10         6.8681    1.3449    1.5697 C.3       1 <0>        -0.0319
     11 C11         0.9458    1.5505   -1.8563 C.3       1 <0>        -0.0918
     12 C12        -0.4678    0.1037   -0.2936 C.3       1 <0>        -0.0841
     13 C13         1.6320    0.2101   -2.0964 C.3       1 <0>         0.0870
     14 C14         6.4788   -1.0425    2.2496 C.3       1 <0>         0.2023
     15 C15         0.8897   -0.3588    0.2303 C.3       1 <0>         0.0778
     16 C16         7.3211    0.2120    2.5051 C.3       1 <0>        -0.0746
     17 C17        -0.3875    1.4098   -1.1040 C.3       1 <0>        -0.0681
     18 C18         8.8220   -0.0713    2.3751 C.3       1 <0>        -0.0944
     19 C19        -1.5791    1.5133   -2.0576 C.3       1 <0>        -0.0918
     20 C20         2.8965   -3.7759   -3.7050 C.3       1 <0>        -0.1192
     21 C21         2.4114   -3.0756   -2.4306 C.3       1 <0>        -0.0916
     22 C22         3.3037   -2.7834   -4.7871 C.3       1 <0>         0.1883
     23 C23         3.4544   -2.1251   -1.8653 C.3       1 <0>         0.1952
     24 N1          6.5251   -1.4407    0.8554 N.pl3     1 <0>        -0.7670
     25 N2          1.8770   -0.5193   -0.8436 N.am      1 <0>        -0.4509
     26 N3          1.2724   -0.0489   -6.4231 N.pl3     1 <0>        -0.8477
     27 N4          3.5763   -0.6609   -6.6925 N.pl3     1 <0>        -0.8633
     28 N5          2.2019   -1.9060   -5.1551 N.pl3     1 <0>        -0.7419
     29 N6          4.6097   -2.8934   -1.3678 N.pl3     1 <0>        -0.8860
     30 O1          0.7173    0.8974    2.3108 O.2       1 <0>        -0.5199
     31 O2          3.4814   -1.5970    0.4480 O.2       1 <0>        -0.6131
     32 O3          6.1698   -2.6265   -3.3996 O.2       1 <0>        -0.6576
     33 O4          7.1388   -3.3235   -1.1861 O.2       1 <0>        -0.6482
     34 O5          2.5550    1.1443    0.9849 O.3       1 <0>        -0.6303
     35 S1          6.1736   -2.5573   -1.9508 S.o2      1 <0>         1.5193
     36 H1          6.5435    2.1609   -3.0173 H         1 <0>         0.1426
     37 H2          6.8235    2.8872   -0.6719 H         1 <0>         0.1398
     38 H3          6.2656   -0.2543   -3.5434 H         1 <0>         0.1599
     39 H4          7.5861    2.1725    1.6211 H         1 <0>         0.0574
     40 H5          5.8975    1.7275    1.9104 H         1 <0>         0.0629
     41 H6          1.6183    2.1788   -1.2572 H         1 <0>         0.0614
     42 H7          0.8028    2.0758   -2.8079 H         1 <0>         0.0593
     43 H8         -0.8795   -0.6920   -0.9297 H         1 <0>         0.0841
     44 H9         -1.1784    0.2354    0.5325 H         1 <0>         0.0679
     45 H10         1.0116   -0.4343   -2.7302 H         1 <0>         0.0826
     46 H11         2.5790    0.3704   -2.6207 H         1 <0>         0.0383
     47 H12         6.8300   -1.8717    2.8739 H         1 <0>         0.0556
     48 H13         5.4356   -0.8502    2.5290 H         1 <0>         0.0415
     49 H14         0.7693   -1.3229    0.7388 H         1 <0>         0.0851
     50 H15         7.1566    0.5367    3.5400 H         1 <0>         0.0639
     51 H16        -0.4679    2.2580   -0.4122 H         1 <0>         0.0584
     52 H17         9.2504    0.4995    1.5459 H         1 <0>         0.0401
     53 H18         9.3470    0.2082    3.2934 H         1 <0>         0.0440
     54 H19         8.9975   -1.1349    2.1879 H         1 <0>         0.0459
     55 H20        -1.7509    2.5545   -2.3465 H         1 <0>         0.0456
     56 H21        -1.3974    0.9294   -2.9649 H         1 <0>         0.0366
     57 H22        -2.4876    1.1341   -1.5800 H         1 <0>         0.0474
     58 H23         3.7485   -4.4232   -3.4647 H         1 <0>         0.0800
     59 H24         2.1002   -4.4168   -4.1006 H         1 <0>         0.0681
     60 H25         2.1309   -3.8309   -1.6847 H         1 <0>         0.0740
     61 H26         1.5011   -2.5046   -2.6534 H         1 <0>         0.0631
     62 H27         3.6470   -3.3002   -5.6889 H         1 <0>         0.0970
     63 H28         4.1221   -2.1523   -4.4264 H         1 <0>         0.0725
     64 H29         3.7902   -1.3903   -2.5956 H         1 <0>         0.0839
     65 H30         6.3115   -2.3985    0.6051 H         1 <0>         0.4531
     66 H31         0.3521   -0.1672   -6.0080 H         1 <0>         0.4798
     67 H32         1.3829    0.7003   -7.1025 H         1 <0>         0.4881
     68 H33         4.3793   -1.2442   -6.4701 H         1 <0>         0.4801
     69 H34         3.7085    0.0836   -7.3728 H         1 <0>         0.4806
     70 H35         1.2837   -2.0363   -4.7277 H         1 <0>         0.4689
     71 H36         4.5044   -3.3037   -0.4338 H         1 <0>         0.4505
     72 H37         2.8671    1.7795    1.6642 H         1 <0>         0.4443
@<TRIPOS>BOND
     1    1    2 ar
     2    1    3 ar
     3    2    4 ar
     4    3    6 ar
     5    4    5 ar
     6    4   10 1
     7    5    6 ar
     8    5   24 1
     9    6   35 1
    10    7   15 1
    11    7   30 2
    12    7   34 1
    13    8   23 1
    14    8   25 am
    15    8   31 2
    16    9   26 1
    17    9   27 1
    18    9   28 1
    19   10   16 1
    20   11   13 1
    21   11   17 1
    22   12   15 1
    23   12   17 1
    24   13   25 1
    25   14   16 1
    26   14   24 1
    27   15   25 1
    28   16   18 1
    29   17   19 1
    30   20   21 1
    31   20   22 1
    32   21   23 1
    33   22   28 1
    34   23   29 1
    35   29   35 1
    36   32   35 2
    37   33   35 2
    38    1   36 1
    39    2   37 1
    40    3   38 1
    41   10   39 1
    42   10   40 1
    43   11   41 1
    44   11   42 1
    45   12   43 1
    46   12   44 1
    47   13   45 1
    48   13   46 1
    49   14   47 1
    50   14   48 1
    51   15   49 1
    52   16   50 1
    53   17   51 1
    54   18   52 1
    55   18   53 1
    56   18   54 1
    57   19   55 1
    58   19   56 1
    59   19   57 1
    60   20   58 1
    61   20   59 1
    62   21   60 1
    63   21   61 1
    64   22   62 1
    65   22   63 1
    66   23   64 1
    67   24   65 1
    68   26   66 1
    69   26   67 1
    70   27   68 1
    71   27   69 1
    72   28   70 1
    73   29   71 1
    74   34   72 1
@<TRIPOS>MOLECULE
1dwc_ligand_133
   72    74     0     0     0
SMALL
USER_CHARGES

mmff94s_NoEstat = 78.09
@<TRIPOS>ATOM
      1 C1         -3.3475   -6.3503    1.8791 C.ar      1 <0>        -0.1945
      2 C2         -3.9958   -5.9344    0.7180 C.ar      1 <0>        -0.0294
      3 C3         -2.9512   -5.4113    2.8268 C.ar      1 <0>        -0.0143
      4 C4         -4.2554   -4.5738    0.4999 C.ar      1 <0>        -0.1552
      5 C5         -3.8316   -3.6142    1.4408 C.ar      1 <0>         0.3076
      6 C6         -3.1944   -4.0540    2.6102 C.ar      1 <0>        -0.4908
      7 C7          3.7233   -2.4449    4.7893 C.2       1 <0>         0.5994
      8 C8          0.8654   -1.4427    3.2413 C.2       1 <0>         0.6462
      9 C9          1.3456   -6.9412   -0.3642 C.cat     1 <0>         0.6305
     10 C10        -4.9524   -4.1403   -0.7675 C.3       1 <0>        -0.0319
     11 C11         1.7658    0.4222    6.2790 C.3       1 <0>        -0.0918
     12 C12         2.2228   -2.0030    6.6989 C.3       1 <0>        -0.0841
     13 C13         1.9003    0.1799    4.7810 C.3       1 <0>         0.0870
     14 C14        -4.5641   -1.7769   -0.0261 C.3       1 <0>         0.2023
     15 C15         2.2690   -2.2605    5.1905 C.3       1 <0>         0.0778
     16 C16        -5.5921   -2.7519   -0.6095 C.3       1 <0>        -0.0746
     17 C17         2.6202   -0.5689    7.0736 C.3       1 <0>        -0.0681
     18 C18        -6.1301   -2.2464   -1.9453 C.3       1 <0>        -0.0944
     19 C19         2.4647   -0.3375    8.5754 C.3       1 <0>        -0.0918
     20 C20         1.7689   -4.0083    2.0091 C.3       1 <0>        -0.1192
     21 C21         0.3004   -3.5693    2.0376 C.3       1 <0>        -0.0916
     22 C22         2.0958   -4.8429    0.7769 C.3       1 <0>         0.1883
     23 C23        -0.0078   -2.6730    3.2260 C.3       1 <0>         0.1952
     24 N1         -4.0757   -2.2595    1.2518 N.pl3     1 <0>        -0.7670
     25 N2          1.5999   -1.2067    4.4091 N.am      1 <0>        -0.4509
     26 N3          0.5495   -8.0810   -0.4079 N.pl3     1 <0>        -0.8477
     27 N4          2.2318   -6.6929   -1.4069 N.pl3     1 <0>        -0.8633
     28 N5          1.2730   -6.0418    0.7049 N.pl3     1 <0>        -0.7419
     29 N6         -1.3760   -2.1385    3.1042 N.pl3     1 <0>        -0.8860
     30 O1          4.4523   -1.5599    4.3665 O.2       1 <0>        -0.5199
     31 O2          0.8891   -0.7105    2.2483 O.2       1 <0>        -0.6131
     32 O3         -3.7495   -1.9880    4.0928 O.2       1 <0>        -0.6576
     33 O4         -2.1627   -3.7355    4.9602 O.2       1 <0>        -0.6482
     34 O5          4.1079   -3.7331    4.9617 O.3       1 <0>        -0.6303
     35 S1         -2.6746   -2.9347    3.8647 S.o2      1 <0>         1.5193
     36 H1         -3.1550   -7.4065    2.0458 H         1 <0>         0.1426
     37 H2         -4.3045   -6.6753   -0.0157 H         1 <0>         0.1398
     38 H3         -2.4509   -5.7242    3.7377 H         1 <0>         0.1599
     39 H4         -4.2148   -4.1296   -1.5800 H         1 <0>         0.0574
     40 H5         -5.7315   -4.8656   -1.0323 H         1 <0>         0.0629
     41 H6          2.0669    1.4503    6.5123 H         1 <0>         0.0614
     42 H7          0.7128    0.3207    6.5714 H         1 <0>         0.0593
     43 H8          1.1978   -2.1858    7.0494 H         1 <0>         0.0841
     44 H9          2.8666   -2.7151    7.2306 H         1 <0>         0.0679
     45 H10         1.2456    0.8722    4.2416 H         1 <0>         0.0826
     46 H11         2.9258    0.3867    4.4518 H         1 <0>         0.0383
     47 H12        -3.7191   -1.6505   -0.7142 H         1 <0>         0.0556
     48 H13        -5.0170   -0.7893    0.1158 H         1 <0>         0.0415
     49 H14         1.7884   -3.2235    4.9909 H         1 <0>         0.0851
     50 H15        -6.4375   -2.8304    0.0874 H         1 <0>         0.0639
     51 H16         3.6763   -0.4106    6.8224 H         1 <0>         0.0584
     52 H17        -6.7909   -1.3877   -1.7933 H         1 <0>         0.0401
     53 H18        -5.3086   -1.9377   -2.5987 H         1 <0>         0.0440
     54 H19        -6.6976   -3.0320   -2.4531 H         1 <0>         0.0459
     55 H20         2.1532   -1.2591    9.0761 H         1 <0>         0.0456
     56 H21         3.4121   -0.0103    9.0142 H         1 <0>         0.0366
     57 H22         1.7112    0.4316    8.7697 H         1 <0>         0.0474
     58 H23         2.4156   -3.1229    2.0318 H         1 <0>         0.0800
     59 H24         1.9949   -4.6013    2.9028 H         1 <0>         0.0681
     60 H25        -0.3448   -4.4577    2.0448 H         1 <0>         0.0740
     61 H26         0.0666   -3.0218    1.1158 H         1 <0>         0.0631
     62 H27         3.1472   -5.1474    0.7729 H         1 <0>         0.0970
     63 H28         1.9091   -4.2592   -0.1301 H         1 <0>         0.0725
     64 H29         0.1003   -3.1895    4.1787 H         1 <0>         0.0839
     65 H30        -3.6865   -1.6028    1.9171 H         1 <0>         0.4531
     66 H31        -0.1107   -8.3043    0.3321 H         1 <0>         0.4798
     67 H32         0.6091   -8.7303   -1.1889 H         1 <0>         0.4881
     68 H33         2.8285   -5.8692   -1.4068 H         1 <0>         0.4801
     69 H34         2.3056   -7.3283   -2.1978 H         1 <0>         0.4806
     70 H35         0.6129   -6.2511    1.4553 H         1 <0>         0.4689
     71 H36        -1.4476   -1.1318    2.9219 H         1 <0>         0.4505
     72 H37         5.0446   -3.8732    4.7061 H         1 <0>         0.4443
@<TRIPOS>BOND
     1    1    2 ar
     2    1    3 ar
     3    2    4 ar
     4    3    6 ar
     5    4    5 ar
     6    4   10 1
     7    5    6 ar
     8    5   24 1
     9    6   35 1
    10    7   15 1
    11    7   30 2
    12    7   34 1
    13    8   23 1
    14    8   25 am
    15    8   31 2
    16    9   26 1
    17    9   27 1
    18    9   28 1
    19   10   16 1
    20   11   13 1
    21   11   17 1
    22   12   15 1
    23   12   17 1
    24   13   25 1
    25   14   16 1
    26   14   24 1
    27   15   25 1
    28   16   18 1
    29   17   19 1
    30   20   21 1
    31   20   22 1
    32   21   23 1
    33   22   28 1
    34   23   29 1
    35   29   35 1
    36   32   35 2
    37   33   35 2
    38    1   36 1
    39    2   37 1
    40    3   38 1
    41   10   39 1
    42   10   40 1
    43   11   41 1
    44   11   42 1
    45   12   43 1
    46   12   44 1
    47   13   45 1
    48   13   46 1
    49   14   47 1
    50   14   48 1
    51   15   49 1
    52   16   50 1
    53   17   51 1
    54   18   52 1
    55   18   53 1
    56   18   54 1
    57   19   55 1
    58   19   56 1
    59   19   57 1
    60   20   58 1
    61   20   59 1
    62   21   60 1
    63   21   61 1
    64   22   62 1
    65   22   63 1
    66   23   64 1
    67   24   65 1
    68   26   66 1
    69   26   67 1
    70   27   68 1
    71   27   69 1
    72   28   70 1
    73   29   71 1
    74   34   72 1
@<TRIPOS>MOLECULE
1dwc_ligand_134
   72    74     0     0     0
SMALL
USER_CHARGES

mmff94s_NoEstat = 78.10
@<TRIPOS>ATOM
      1 C1         -1.4072   -6.2841    0.5334 C.ar      1 <0>        -0.1945
      2 C2         -0.3050   -6.5010   -0.2908 C.ar      1 <0>        -0.0294
      3 C3         -1.2178   -5.9155    1.8618 C.ar      1 <0>        -0.0143
      4 C4          0.9961   -6.3538    0.2114 C.ar      1 <0>        -0.1552
      5 C5          1.1959   -5.9530    1.5470 C.ar      1 <0>         0.3076
      6 C6          0.0742   -5.7546    2.3651 C.ar      1 <0>        -0.4908
      7 C7         -1.4628    0.1636    1.3526 C.2       1 <0>         0.5994
      8 C8          0.8654   -1.4427    3.2413 C.2       1 <0>         0.6462
      9 C9         -3.2174   -1.4380    8.5188 C.cat     1 <0>         0.6305
     10 C10         2.1776   -6.5853   -0.6996 C.3       1 <0>        -0.0319
     11 C11         2.1918    0.8805    0.7195 C.3       1 <0>        -0.0918
     12 C12         0.2821   -0.3679   -0.3105 C.3       1 <0>        -0.0841
     13 C13         1.6113    0.6116    2.1020 C.3       1 <0>         0.0870
     14 C14         3.6317   -5.8205    1.2015 C.3       1 <0>         0.2023
     15 C15        -0.2506   -0.7126    1.0828 C.3       1 <0>         0.0778
     16 C16         3.4776   -6.8504    0.0772 C.3       1 <0>        -0.0746
     17 C17         1.0859    0.9390   -0.3376 C.3       1 <0>        -0.0681
     18 C18         3.5447   -8.2877    0.6061 C.3       1 <0>        -0.0944
     19 C19         1.6740    1.1859   -1.7255 C.3       1 <0>        -0.0918
     20 C20        -1.0866   -2.1427    5.4567 C.3       1 <0>        -0.1192
     21 C21        -1.3133   -2.4479    3.9716 C.3       1 <0>        -0.0916
     22 C22        -2.3970   -1.9935    6.2196 C.3       1 <0>         0.1883
     23 C23        -0.0078   -2.6730    3.2260 C.3       1 <0>         0.1952
     24 N1          2.4729   -5.8065    2.0741 N.pl3     1 <0>        -0.7670
     25 N2          0.7744   -0.5925    2.1333 N.am      1 <0>        -0.4509
     26 N3         -2.9736   -1.1414    9.8558 N.pl3     1 <0>        -0.8477
     27 N4         -4.5309   -1.4955    8.0658 N.pl3     1 <0>        -0.8633
     28 N5         -2.1703   -1.6789    7.6229 N.pl3     1 <0>        -0.7419
     29 N6          0.7961   -3.6905    3.9267 N.pl3     1 <0>        -0.8860
     30 O1         -1.4385    1.2323    1.9447 O.2       1 <0>        -0.5199
     31 O2          1.6103   -1.2468    4.2054 O.2       1 <0>        -0.6131
     32 O3         -1.1034   -5.2783    4.6370 O.2       1 <0>        -0.6576
     33 O4          1.2668   -6.1189    4.6309 O.2       1 <0>        -0.6482
     34 O5         -2.5854   -0.4037    0.8474 O.3       1 <0>        -0.6303
     35 S1          0.2254   -5.2894    4.0556 S.o2      1 <0>         1.5193
     36 H1         -2.4130   -6.4058    0.1405 H         1 <0>         0.1426
     37 H2         -0.4624   -6.7916   -1.3268 H         1 <0>         0.1398
     38 H3         -2.0688   -5.7496    2.5150 H         1 <0>         0.1599
     39 H4          1.9762   -7.4254   -1.3755 H         1 <0>         0.0574
     40 H5          2.3035   -5.6869   -1.3173 H         1 <0>         0.0629
     41 H6          2.7495    1.8244    0.7335 H         1 <0>         0.0614
     42 H7          2.9066    0.0878    0.4640 H         1 <0>         0.0593
     43 H8          0.9336   -1.1873   -0.6438 H         1 <0>         0.0841
     44 H9         -0.5414   -0.3095   -1.0336 H         1 <0>         0.0679
     45 H10         2.4269    0.5309    2.8282 H         1 <0>         0.0826
     46 H11         0.9807    1.4504    2.4206 H         1 <0>         0.0383
     47 H12         4.5279   -6.0341    1.7945 H         1 <0>         0.0556
     48 H13         3.7631   -4.8203    0.7705 H         1 <0>         0.0415
     49 H14        -0.6325   -1.7382    1.0612 H         1 <0>         0.0851
     50 H15         4.3197   -6.7370   -0.6165 H         1 <0>         0.0639
     51 H16         0.4173    1.7778   -0.1080 H         1 <0>         0.0584
     52 H17         2.5943   -8.8034    0.4393 H         1 <0>         0.0401
     53 H18         4.3347   -8.8481    0.0972 H         1 <0>         0.0440
     54 H19         3.7555   -8.2927    1.6797 H         1 <0>         0.0459
     55 H20         1.1081    0.6390   -2.4855 H         1 <0>         0.0456
     56 H21         1.6425    2.2512   -1.9725 H         1 <0>         0.0366
     57 H22         2.7156    0.8534   -1.7662 H         1 <0>         0.0474
     58 H23        -0.4913   -2.9455    5.9081 H         1 <0>         0.0800
     59 H24        -0.5143   -1.2136    5.5600 H         1 <0>         0.0681
     60 H25        -1.8840   -1.6286    3.5148 H         1 <0>         0.0740
     61 H26        -1.9315   -3.3495    3.8758 H         1 <0>         0.0631
     62 H27        -2.9930   -2.9100    6.1652 H         1 <0>         0.0970
     63 H28        -2.9889   -1.1790    5.7901 H         1 <0>         0.0725
     64 H29        -0.1638   -2.9774    2.1921 H         1 <0>         0.0839
     65 H30         2.5644   -5.4443    3.0154 H         1 <0>         0.4531
     66 H31        -2.0306   -1.0905   10.2318 H         1 <0>         0.4798
     67 H32        -3.7410   -0.9681   10.5009 H         1 <0>         0.4881
     68 H33        -4.7448   -1.7097    7.0948 H         1 <0>         0.4801
     69 H34        -5.3125   -1.3238    8.6938 H         1 <0>         0.4806
     70 H35        -1.2168   -1.6295    7.9850 H         1 <0>         0.4689
     71 H36         1.8068   -3.5190    3.9555 H         1 <0>         0.4505
     72 H37        -3.3805    0.1466    1.0133 H         1 <0>         0.4443
@<TRIPOS>BOND
     1    1    2 ar
     2    1    3 ar
     3    2    4 ar
     4    3    6 ar
     5    4    5 ar
     6    4   10 1
     7    5    6 ar
     8    5   24 1
     9    6   35 1
    10    7   15 1
    11    7   30 2
    12    7   34 1
    13    8   23 1
    14    8   25 am
    15    8   31 2
    16    9   26 1
    17    9   27 1
    18    9   28 1
    19   10   16 1
    20   11   13 1
    21   11   17 1
    22   12   15 1
    23   12   17 1
    24   13   25 1
    25   14   16 1
    26   14   24 1
    27   15   25 1
    28   16   18 1
    29   17   19 1
    30   20   21 1
    31   20   22 1
    32   21   23 1
    33   22   28 1
    34   23   29 1
    35   29   35 1
    36   32   35 2
    37   33   35 2
    38    1   36 1
    39    2   37 1
    40    3   38 1
    41   10   39 1
    42   10   40 1
    43   11   41 1
    44   11   42 1
    45   12   43 1
    46   12   44 1
    47   13   45 1
    48   13   46 1
    49   14   47 1
    50   14   48 1
    51   15   49 1
    52   16   50 1
    53   17   51 1
    54   18   52 1
    55   18   53 1
    56   18   54 1
    57   19   55 1
    58   19   56 1
    59   19   57 1
    60   20   58 1
    61   20   59 1
    62   21   60 1
    63   21   61 1
    64   22   62 1
    65   22   63 1
    66   23   64 1
    67   24   65 1
    68   26   66 1
    69   26   67 1
    70   27   68 1
    71   27   69 1
    72   28   70 1
    73   29   71 1
    74   34   72 1
@<TRIPOS>MOLECULE
1dwc_ligand_135
   72    74     0     0     0
SMALL
USER_CHARGES

mmff94s_NoEstat = 78.12
@<TRIPOS>ATOM
      1 C1          2.9804   -6.8364   -3.8826 C.ar      1 <0>        -0.1945
      2 C2          2.9418   -6.7056   -5.2692 C.ar      1 <0>        -0.0294
      3 C3          2.4346   -5.8419   -3.0764 C.ar      1 <0>        -0.0143
      4 C4          2.3519   -5.5783   -5.8586 C.ar      1 <0>        -0.1552
      5 C5          1.8230   -4.5534   -5.0490 C.ar      1 <0>         0.3076
      6 C6          1.8576   -4.7107   -3.6559 C.ar      1 <0>        -0.4908
      7 C7          2.4038   -0.4910    2.4030 C.2       1 <0>         0.5994
      8 C8          2.9466   -1.3973   -0.6457 C.2       1 <0>         0.6462
      9 C9          5.4183    0.2006   -6.1876 C.cat     1 <0>         0.6305
     10 C10         2.3255   -5.4497   -7.3628 C.3       1 <0>        -0.0319
     11 C11         3.9178   -3.4419    2.3602 C.3       1 <0>        -0.0918
     12 C12         4.8012   -1.0545    2.5913 C.3       1 <0>        -0.0841
     13 C13         4.0430   -3.0960    0.8803 C.3       1 <0>         0.0870
     14 C14         1.3521   -3.1637   -7.0268 C.3       1 <0>         0.2023
     15 C15         3.6790   -0.7248    1.6100 C.3       1 <0>         0.0778
     16 C16         1.2367   -4.4677   -7.8231 C.3       1 <0>        -0.0746
     17 C17         4.6242   -2.4243    3.2705 C.3       1 <0>        -0.0681
     18 C18         1.3410   -4.2047   -9.3229 C.3       1 <0>        -0.0944
     19 C19         5.9763   -2.9527    3.7531 C.3       1 <0>        -0.0918
     20 C20         5.1203   -2.1076   -3.7746 C.3       1 <0>        -0.1192
     21 C21         4.5564   -1.3488   -2.5679 C.3       1 <0>        -0.0916
     22 C22         6.2766   -1.3646   -4.4322 C.3       1 <0>         0.1883
     23 C23         3.4544   -2.1251   -1.8653 C.3       1 <0>         0.1952
     24 N1          1.2318   -3.4255   -5.6050 N.pl3     1 <0>        -0.7670
     25 N2          3.5192   -1.7560    0.5781 N.am      1 <0>        -0.4509
     26 N3          5.0398    1.4748   -6.5975 N.pl3     1 <0>        -0.8477
     27 N4          5.3388   -0.8538   -7.0910 N.pl3     1 <0>        -0.8633
     28 N5          5.8764   -0.0411   -4.8880 N.pl3     1 <0>        -0.7419
     29 N6          2.2741   -2.2179   -2.7432 N.pl3     1 <0>        -0.8860
     30 O1          2.2729    0.3351    3.2940 O.2       1 <0>        -0.5199
     31 O2          2.0685   -0.5400   -0.7710 O.2       1 <0>        -0.6131
     32 O3         -0.1165   -3.1121   -3.0880 O.2       1 <0>        -0.6576
     33 O4          1.2896   -4.0436   -1.2226 O.2       1 <0>        -0.6482
     34 O5          1.4223   -1.3294    1.9894 O.3       1 <0>        -0.6303
     35 S1          1.1775   -3.5081   -2.5659 S.o2      1 <0>         1.5193
     36 H1          3.4328   -7.7153   -3.4316 H         1 <0>         0.1426
     37 H2          3.3680   -7.4891   -5.8914 H         1 <0>         0.1398
     38 H3          2.4534   -5.9358   -1.9953 H         1 <0>         0.1599
     39 H4          3.3132   -5.1073   -7.6968 H         1 <0>         0.0574
     40 H5          2.1395   -6.4300   -7.8186 H         1 <0>         0.0629
     41 H6          2.8510   -3.4591    2.6203 H         1 <0>         0.0614
     42 H7          4.2939   -4.4553    2.5428 H         1 <0>         0.0593
     43 H8          5.7524   -1.0436    2.0413 H         1 <0>         0.0841
     44 H9          4.8832   -0.2779    3.3625 H         1 <0>         0.0679
     45 H10         5.0934   -3.1114    0.5668 H         1 <0>         0.0826
     46 H11         3.5122   -3.8428    0.2819 H         1 <0>         0.0383
     47 H12         2.3133   -2.6740   -7.2264 H         1 <0>         0.0556
     48 H13         0.5637   -2.4650   -7.3281 H         1 <0>         0.0415
     49 H14         3.9015    0.2290    1.1168 H         1 <0>         0.0851
     50 H15         0.2527   -4.9144   -7.6261 H         1 <0>         0.0639
     51 H16         4.0032   -2.2947    4.1661 H         1 <0>         0.0584
     52 H17         0.4364   -3.7110   -9.6904 H         1 <0>         0.0401
     53 H18         2.1981   -3.5608   -9.5417 H         1 <0>         0.0440
     54 H19         1.4672   -5.1439   -9.8699 H         1 <0>         0.0459
     55 H20         5.8782   -3.4157    4.7396 H         1 <0>         0.0456
     56 H21         6.3665   -3.7022    3.0580 H         1 <0>         0.0366
     57 H22         6.7034   -2.1384    3.8257 H         1 <0>         0.0474
     58 H23         5.4592   -3.1007   -3.4560 H         1 <0>         0.0800
     59 H24         4.3307   -2.2553   -4.5204 H         1 <0>         0.0681
     60 H25         4.1906   -0.3664   -2.8945 H         1 <0>         0.0740
     61 H26         5.3633   -1.1575   -1.8491 H         1 <0>         0.0631
     62 H27         6.6666   -1.9201   -5.2910 H         1 <0>         0.0970
     63 H28         7.0930   -1.2338   -3.7147 H         1 <0>         0.0725
     64 H29         3.7703   -3.1244   -1.5692 H         1 <0>         0.0839
     65 H30         0.9344   -2.6826   -4.9846 H         1 <0>         0.4531
     66 H31         5.0793    2.2747   -5.9715 H         1 <0>         0.4798
     67 H32         4.7072    1.6417   -7.5444 H         1 <0>         0.4881
     68 H33         5.6074   -1.7979   -6.8244 H         1 <0>         0.4801
     69 H34         5.0107   -0.7081   -8.0427 H         1 <0>         0.4806
     70 H35         5.9237    0.7529   -4.2477 H         1 <0>         0.4689
     71 H36         1.9407   -1.3323   -3.1385 H         1 <0>         0.4505
     72 H37         0.5902   -1.1952    2.4913 H         1 <0>         0.4443
@<TRIPOS>BOND
     1    1    2 ar
     2    1    3 ar
     3    2    4 ar
     4    3    6 ar
     5    4    5 ar
     6    4   10 1
     7    5    6 ar
     8    5   24 1
     9    6   35 1
    10    7   15 1
    11    7   30 2
    12    7   34 1
    13    8   23 1
    14    8   25 am
    15    8   31 2
    16    9   26 1
    17    9   27 1
    18    9   28 1
    19   10   16 1
    20   11   13 1
    21   11   17 1
    22   12   15 1
    23   12   17 1
    24   13   25 1
    25   14   16 1
    26   14   24 1
    27   15   25 1
    28   16   18 1
    29   17   19 1
    30   20   21 1
    31   20   22 1
    32   21   23 1
    33   22   28 1
    34   23   29 1
    35   29   35 1
    36   32   35 2
    37   33   35 2
    38    1   36 1
    39    2   37 1
    40    3   38 1
    41   10   39 1
    42   10   40 1
    43   11   41 1
    44   11   42 1
    45   12   43 1
    46   12   44 1
    47   13   45 1
    48   13   46 1
    49   14   47 1
    50   14   48 1
    51   15   49 1
    52   16   50 1
    53   17   51 1
    54   18   52 1
    55   18   53 1
    56   18   54 1
    57   19   55 1
    58   19   56 1
    59   19   57 1
    60   20   58 1
    61   20   59 1
    62   21   60 1
    63   21   61 1
    64   22   62 1
    65   22   63 1
    66   23   64 1
    67   24   65 1
    68   26   66 1
    69   26   67 1
    70   27   68 1
    71   27   69 1
    72   28   70 1
    73   29   71 1
    74   34   72 1
@<TRIPOS>MOLECULE
1dwc_ligand_136
   72    74     0     0     0
SMALL
USER_CHARGES

mmff94s_NoEstat = 78.14
@<TRIPOS>ATOM
      1 C1          0.2729   -5.6236   -0.4407 C.ar      1 <0>        -0.1945
      2 C2         -0.6484   -6.6112   -0.0987 C.ar      1 <0>        -0.0294
      3 C3          1.0504   -5.0282    0.5480 C.ar      1 <0>        -0.0143
      4 C4         -0.8004   -7.0071    1.2380 C.ar      1 <0>        -0.1552
      5 C5          0.0031   -6.4297    2.2408 C.ar      1 <0>         0.3076
      6 C6          0.9136   -5.4263    1.8789 C.ar      1 <0>        -0.4908
      7 C7         -0.2549    0.4306    0.6330 C.2       1 <0>         0.5994
      8 C8          0.8654   -1.4427    3.2413 C.2       1 <0>         0.6462
      9 C9         -4.4840   -2.7250    6.8178 C.cat     1 <0>         0.6305
     10 C10        -1.7983   -8.0848    1.5877 C.3       1 <0>        -0.0319
     11 C11         3.3665   -0.6443    0.6676 C.3       1 <0>        -0.0918
     12 C12         1.2181   -1.2005   -0.4907 C.3       1 <0>        -0.0841
     13 C13         2.5847   -0.2704    1.9206 C.3       1 <0>         0.0870
     14 C14        -0.9225   -7.9557    3.9392 C.3       1 <0>         0.2023
     15 C15         0.4427   -0.9096    0.7969 C.3       1 <0>         0.0778
     16 C16        -2.1834   -8.0707    3.0760 C.3       1 <0>        -0.0746
     17 C17         2.5288   -0.4088   -0.5919 C.3       1 <0>        -0.0681
     18 C18        -3.1963   -6.9649    3.3941 C.3       1 <0>        -0.0944
     19 C19         3.3078   -0.8065   -1.8442 C.3       1 <0>        -0.0918
     20 C20        -2.2331   -3.6727    3.9110 C.3       1 <0>        -0.1192
     21 C21        -1.3133   -2.4479    3.9716 C.3       1 <0>        -0.0916
     22 C22        -3.5726   -3.4201    4.5920 C.3       1 <0>         0.1883
     23 C23        -0.0078   -2.6730    3.2260 C.3       1 <0>         0.1952
     24 N1         -0.1305   -6.7964    3.5741 N.pl3     1 <0>        -0.7670
     25 N2          1.2915   -0.9578    1.9994 N.am      1 <0>        -0.4509
     26 N3         -4.2969   -2.3866    8.1540 N.pl3     1 <0>        -0.8477
     27 N4         -5.7720   -2.7293    6.2935 N.pl3     1 <0>        -0.8633
     28 N5         -3.4050   -3.0601    5.9927 N.pl3     1 <0>        -0.7419
     29 N6          0.7961   -3.6905    3.9267 N.pl3     1 <0>        -0.8860
     30 O1          0.1931    1.5051    1.0045 O.2       1 <0>        -0.5199
     31 O2          1.1650   -0.9321    4.3240 O.2       1 <0>        -0.6131
     32 O3          2.4834   -5.6363    3.9445 O.2       1 <0>        -0.6576
     33 O4          2.8151   -3.7334    2.3342 O.2       1 <0>        -0.6482
     34 O5         -1.4521    0.2749    0.0168 O.3       1 <0>        -0.6303
     35 S1          1.9328   -4.6215    3.0666 S.o2      1 <0>         1.5193
     36 H1          0.3819   -5.3163   -1.4773 H         1 <0>         0.1426
     37 H2         -1.2538   -7.0689   -0.8775 H         1 <0>         0.1398
     38 H3          1.7672   -4.2535    0.2943 H         1 <0>         0.1599
     39 H4         -2.7011   -7.9788    0.9739 H         1 <0>         0.0574
     40 H5         -1.3433   -9.0529    1.3421 H         1 <0>         0.0629
     41 H6          4.2893   -0.0541    0.6219 H         1 <0>         0.0614
     42 H7          3.6617   -1.6999    0.7239 H         1 <0>         0.0593
     43 H8          1.4535   -2.2733   -0.5175 H         1 <0>         0.0841
     44 H9          0.5944   -0.9953   -1.3701 H         1 <0>         0.0679
     45 H10         3.1909   -0.4908    2.8053 H         1 <0>         0.0826
     46 H11         2.3782    0.8066    1.9340 H         1 <0>         0.0383
     47 H12        -1.1905   -7.8906    4.9997 H         1 <0>         0.0556
     48 H13        -0.3087   -8.8568    3.8183 H         1 <0>         0.0415
     49 H14        -0.3616   -1.6465    0.8882 H         1 <0>         0.0851
     50 H15        -2.6797   -9.0207    3.3097 H         1 <0>         0.0639
     51 H16         2.2982    0.6607   -0.6719 H         1 <0>         0.0584
     52 H17        -3.3457   -6.3186    2.5240 H         1 <0>         0.0401
     53 H18        -4.1623   -7.3968    3.6724 H         1 <0>         0.0440
     54 H19        -2.8427   -6.3474    4.2251 H         1 <0>         0.0459
     55 H20         2.6382   -1.2449   -2.5902 H         1 <0>         0.0456
     56 H21         3.7937    0.0674   -2.2885 H         1 <0>         0.0366
     57 H22         4.0794   -1.5424   -1.5992 H         1 <0>         0.0474
     58 H23        -2.4032   -3.9506    2.8639 H         1 <0>         0.0800
     59 H24        -1.7473   -4.5245    4.4007 H         1 <0>         0.0681
     60 H25        -1.1204   -2.1894    5.0211 H         1 <0>         0.0740
     61 H26        -1.8263   -1.5854    3.5275 H         1 <0>         0.0631
     62 H27        -4.2160   -4.3041    4.5394 H         1 <0>         0.0970
     63 H28        -4.0927   -2.5931    4.0984 H         1 <0>         0.0725
     64 H29        -0.1638   -2.9774    2.1921 H         1 <0>         0.0839
     65 H30         0.5206   -6.4083    4.2456 H         1 <0>         0.4531
     66 H31        -3.3744   -2.3719    8.5807 H         1 <0>         0.4798
     67 H32        -5.0872   -2.1448    8.7473 H         1 <0>         0.4881
     68 H33        -5.9446   -2.9718    5.3209 H         1 <0>         0.4801
     69 H34        -6.5756   -2.4889    6.8690 H         1 <0>         0.4806
     70 H35        -2.4715   -3.0479    6.4062 H         1 <0>         0.4689
     71 H36         0.9382   -3.5340    4.9302 H         1 <0>         0.4505
     72 H37        -1.9197    1.1298   -0.0968 H         1 <0>         0.4443
@<TRIPOS>BOND
     1    1    2 ar
     2    1    3 ar
     3    2    4 ar
     4    3    6 ar
     5    4    5 ar
     6    4   10 1
     7    5    6 ar
     8    5   24 1
     9    6   35 1
    10    7   15 1
    11    7   30 2
    12    7   34 1
    13    8   23 1
    14    8   25 am
    15    8   31 2
    16    9   26 1
    17    9   27 1
    18    9   28 1
    19   10   16 1
    20   11   13 1
    21   11   17 1
    22   12   15 1
    23   12   17 1
    24   13   25 1
    25   14   16 1
    26   14   24 1
    27   15   25 1
    28   16   18 1
    29   17   19 1
    30   20   21 1
    31   20   22 1
    32   21   23 1
    33   22   28 1
    34   23   29 1
    35   29   35 1
    36   32   35 2
    37   33   35 2
    38    1   36 1
    39    2   37 1
    40    3   38 1
    41   10   39 1
    42   10   40 1
    43   11   41 1
    44   11   42 1
    45   12   43 1
    46   12   44 1
    47   13   45 1
    48   13   46 1
    49   14   47 1
    50   14   48 1
    51   15   49 1
    52   16   50 1
    53   17   51 1
    54   18   52 1
    55   18   53 1
    56   18   54 1
    57   19   55 1
    58   19   56 1
    59   19   57 1
    60   20   58 1
    61   20   59 1
    62   21   60 1
    63   21   61 1
    64   22   62 1
    65   22   63 1
    66   23   64 1
    67   24   65 1
    68   26   66 1
    69   26   67 1
    70   27   68 1
    71   27   69 1
    72   28   70 1
    73   29   71 1
    74   34   72 1
@<TRIPOS>MOLECULE
1dwc_ligand_137
   72    74     0     0     0
SMALL
USER_CHARGES

mmff94s_NoEstat = 78.17
@<TRIPOS>ATOM
      1 C1          6.5406    1.4245   -2.2182 C.ar      1 <0>        -0.1945
      2 C2          6.6985    1.8302   -0.8947 C.ar      1 <0>        -0.0294
      3 C3          6.3835    0.0742   -2.5155 C.ar      1 <0>        -0.0143
      4 C4          6.7040    0.8848    0.1410 C.ar      1 <0>        -0.1552
      5 C5          6.5167   -0.4809   -0.1490 C.ar      1 <0>         0.3076
      6 C6          6.3751   -0.8712   -1.4886 C.ar      1 <0>        -0.4908
      7 C7          1.3468    0.6177    1.3014 C.2       1 <0>         0.5994
      8 C8          2.9466   -1.3973   -0.6457 C.2       1 <0>         0.6462
      9 C9          0.5183   -3.2916   -5.9472 C.cat     1 <0>         0.6305
     10 C10         6.8681    1.3449    1.5697 C.3       1 <0>        -0.0319
     11 C11         0.9458    1.5505   -1.8563 C.3       1 <0>        -0.0918
     12 C12        -0.4678    0.1037   -0.2936 C.3       1 <0>        -0.0841
     13 C13         1.6320    0.2101   -2.0964 C.3       1 <0>         0.0870
     14 C14         6.4788   -1.0425    2.2496 C.3       1 <0>         0.2023
     15 C15         0.8897   -0.3588    0.2303 C.3       1 <0>         0.0778
     16 C16         7.3211    0.2120    2.5051 C.3       1 <0>        -0.0746
     17 C17        -0.3875    1.4098   -1.1040 C.3       1 <0>        -0.0681
     18 C18         8.8220   -0.0713    2.3751 C.3       1 <0>        -0.0944
     19 C19        -1.5791    1.5133   -2.0576 C.3       1 <0>        -0.0918
     20 C20         2.8965   -3.7759   -3.7050 C.3       1 <0>        -0.1192
     21 C21         2.4114   -3.0756   -2.4306 C.3       1 <0>        -0.0916
     22 C22         1.8232   -4.6695   -4.3142 C.3       1 <0>         0.1883
     23 C23         3.4544   -2.1251   -1.8653 C.3       1 <0>         0.1952
     24 N1          6.5251   -1.4407    0.8554 N.pl3     1 <0>        -0.7670
     25 N2          1.8770   -0.5193   -0.8436 N.am      1 <0>        -0.4509
     26 N3         -0.6216   -2.5717   -6.2897 N.pl3     1 <0>        -0.8477
     27 N4          1.5546   -3.3989   -6.8683 N.pl3     1 <0>        -0.8633
     28 N5          0.6428   -3.9085   -4.6977 N.pl3     1 <0>        -0.7419
     29 N6          4.6097   -2.8934   -1.3678 N.pl3     1 <0>        -0.8860
     30 O1          2.0601    1.5905    1.1059 O.2       1 <0>        -0.5199
     31 O2          3.4814   -1.5970    0.4480 O.2       1 <0>        -0.6131
     32 O3          6.1698   -2.6265   -3.3996 O.2       1 <0>        -0.6576
     33 O4          7.1388   -3.3235   -1.1861 O.2       1 <0>        -0.6482
     34 O5          0.8563    0.2622    2.5140 O.3       1 <0>        -0.6303
     35 S1          6.1736   -2.5573   -1.9508 S.o2      1 <0>         1.5193
     36 H1          6.5435    2.1609   -3.0173 H         1 <0>         0.1426
     37 H2          6.8235    2.8872   -0.6719 H         1 <0>         0.1398
     38 H3          6.2656   -0.2543   -3.5434 H         1 <0>         0.1599
     39 H4          7.5861    2.1725    1.6211 H         1 <0>         0.0574
     40 H5          5.8975    1.7275    1.9104 H         1 <0>         0.0629
     41 H6          1.6183    2.1788   -1.2572 H         1 <0>         0.0614
     42 H7          0.8028    2.0758   -2.8079 H         1 <0>         0.0593
     43 H8         -0.8795   -0.6920   -0.9297 H         1 <0>         0.0841
     44 H9         -1.1784    0.2354    0.5325 H         1 <0>         0.0679
     45 H10         1.0116   -0.4343   -2.7302 H         1 <0>         0.0826
     46 H11         2.5790    0.3704   -2.6207 H         1 <0>         0.0383
     47 H12         6.8300   -1.8717    2.8739 H         1 <0>         0.0556
     48 H13         5.4356   -0.8502    2.5290 H         1 <0>         0.0415
     49 H14         0.7693   -1.3229    0.7388 H         1 <0>         0.0851
     50 H15         7.1566    0.5367    3.5400 H         1 <0>         0.0639
     51 H16        -0.4679    2.2580   -0.4122 H         1 <0>         0.0584
     52 H17         9.2504    0.4995    1.5459 H         1 <0>         0.0401
     53 H18         9.3470    0.2082    3.2934 H         1 <0>         0.0440
     54 H19         8.9975   -1.1349    2.1879 H         1 <0>         0.0459
     55 H20        -1.7509    2.5545   -2.3465 H         1 <0>         0.0456
     56 H21        -1.3974    0.9294   -2.9649 H         1 <0>         0.0366
     57 H22        -2.4876    1.1341   -1.5800 H         1 <0>         0.0474
     58 H23         3.2051   -3.0234   -4.4407 H         1 <0>         0.0800
     59 H24         3.7751   -4.3904   -3.4776 H         1 <0>         0.0681
     60 H25         2.1309   -3.8309   -1.6847 H         1 <0>         0.0740
     61 H26         1.5011   -2.5046   -2.6534 H         1 <0>         0.0631
     62 H27         1.5147   -5.4515   -3.6131 H         1 <0>         0.0970
     63 H28         2.2095   -5.1562   -5.2154 H         1 <0>         0.0725
     64 H29         3.7902   -1.3903   -2.5956 H         1 <0>         0.0839
     65 H30         6.3115   -2.3985    0.6051 H         1 <0>         0.4531
     66 H31        -1.4045   -2.4682   -5.6497 H         1 <0>         0.4798
     67 H32        -0.7043   -2.1267   -7.2008 H         1 <0>         0.4881
     68 H33         2.4019   -3.9178   -6.6506 H         1 <0>         0.4801
     69 H34         1.4928   -2.9601   -7.7839 H         1 <0>         0.4806
     70 H35        -0.1346   -3.8119   -4.0427 H         1 <0>         0.4689
     71 H36         4.5044   -3.3037   -0.4338 H         1 <0>         0.4505
     72 H37         1.1422    0.8801    3.2203 H         1 <0>         0.4443
@<TRIPOS>BOND
     1    1    2 ar
     2    1    3 ar
     3    2    4 ar
     4    3    6 ar
     5    4    5 ar
     6    4   10 1
     7    5    6 ar
     8    5   24 1
     9    6   35 1
    10    7   15 1
    11    7   30 2
    12    7   34 1
    13    8   23 1
    14    8   25 am
    15    8   31 2
    16    9   26 1
    17    9   27 1
    18    9   28 1
    19   10   16 1
    20   11   13 1
    21   11   17 1
    22   12   15 1
    23   12   17 1
    24   13   25 1
    25   14   16 1
    26   14   24 1
    27   15   25 1
    28   16   18 1
    29   17   19 1
    30   20   21 1
    31   20   22 1
    32   21   23 1
    33   22   28 1
    34   23   29 1
    35   29   35 1
    36   32   35 2
    37   33   35 2
    38    1   36 1
    39    2   37 1
    40    3   38 1
    41   10   39 1
    42   10   40 1
    43   11   41 1
    44   11   42 1
    45   12   43 1
    46   12   44 1
    47   13   45 1
    48   13   46 1
    49   14   47 1
    50   14   48 1
    51   15   49 1
    52   16   50 1
    53   17   51 1
    54   18   52 1
    55   18   53 1
    56   18   54 1
    57   19   55 1
    58   19   56 1
    59   19   57 1
    60   20   58 1
    61   20   59 1
    62   21   60 1
    63   21   61 1
    64   22   62 1
    65   22   63 1
    66   23   64 1
    67   24   65 1
    68   26   66 1
    69   26   67 1
    70   27   68 1
    71   27   69 1
    72   28   70 1
    73   29   71 1
    74   34   72 1
@<TRIPOS>MOLECULE
1dwc_ligand_138
   72    74     0     0     0
SMALL
USER_CHARGES

mmff94s_NoEstat = 78.26
@<TRIPOS>ATOM
      1 C1          7.4663   -1.7419   -5.0555 C.ar      1 <0>        -0.1945
      2 C2          7.8189   -3.0367   -5.4300 C.ar      1 <0>        -0.0294
      3 C3          6.9552   -1.5029   -3.7834 C.ar      1 <0>        -0.0143
      4 C4          7.6581   -4.1030   -4.5334 C.ar      1 <0>        -0.1552
      5 C5          7.1684   -3.8650   -3.2343 C.ar      1 <0>         0.3076
      6 C6          6.8044   -2.5574   -2.8813 C.ar      1 <0>        -0.4908
      7 C7          3.7685    1.5685    0.3235 C.2       1 <0>         0.5994
      8 C8          2.9466   -1.3973   -0.6457 C.2       1 <0>         0.6462
      9 C9          0.5183   -3.2916   -5.9472 C.cat     1 <0>         0.6305
     10 C10         8.0535   -5.4978   -4.9550 C.3       1 <0>        -0.0319
     11 C11         1.8611    1.7587   -2.3835 C.3       1 <0>        -0.0918
     12 C12         1.3294    1.8958    0.1130 C.3       1 <0>        -0.0841
     13 C13         1.7075    0.2690   -2.0963 C.3       1 <0>         0.0870
     14 C14         7.5357   -6.2183   -2.6043 C.3       1 <0>         0.2023
     15 C15         2.4335    0.8481    0.2329 C.3       1 <0>         0.0778
     16 C16         7.3986   -6.5839   -4.0862 C.3       1 <0>        -0.0746
     17 C17         1.3508    2.6418   -1.2332 C.3       1 <0>        -0.0681
     18 C18         5.9378   -6.8286   -4.4814 C.3       1 <0>        -0.0944
     19 C19        -0.0342    3.2135   -1.5417 C.3       1 <0>        -0.0918
     20 C20         2.8965   -3.7759   -3.7050 C.3       1 <0>        -0.1192
     21 C21         2.4114   -3.0756   -2.4306 C.3       1 <0>        -0.0916
     22 C22         1.8232   -4.6695   -4.3142 C.3       1 <0>         0.1883
     23 C23         3.4544   -2.1251   -1.8653 C.3       1 <0>         0.1952
     24 N1          6.9914   -4.9024   -2.3274 N.pl3     1 <0>        -0.7670
     25 N2          2.3949   -0.1309   -0.8598 N.am      1 <0>        -0.4509
     26 N3         -0.6216   -2.5717   -6.2897 N.pl3     1 <0>        -0.8477
     27 N4          1.5546   -3.3989   -6.8683 N.pl3     1 <0>        -0.8633
     28 N5          0.6428   -3.9085   -4.6977 N.pl3     1 <0>        -0.7419
     29 N6          4.6097   -2.8934   -1.3678 N.pl3     1 <0>        -0.8860
     30 O1          4.4929    1.8260   -0.6264 O.2       1 <0>        -0.5199
     31 O2          3.0377   -1.9312    0.4627 O.2       1 <0>        -0.6131
     32 O3          6.9529   -2.8526   -0.2994 O.2       1 <0>        -0.6576
     33 O4          5.9925   -0.7285   -1.2427 O.2       1 <0>        -0.6482
     34 O5          4.0536    1.8884    1.6094 O.3       1 <0>        -0.6303
     35 S1          6.1490   -2.1694   -1.2948 S.o2      1 <0>         1.5193
     36 H1          7.5871   -0.9204   -5.7565 H         1 <0>         0.1426
     37 H2          8.2148   -3.2146   -6.4271 H         1 <0>         0.1398
     38 H3          6.6714   -0.4992   -3.4825 H         1 <0>         0.1599
     39 H4          7.7935   -5.6635   -6.0077 H         1 <0>         0.0574
     40 H5          9.1448   -5.5757   -4.8678 H         1 <0>         0.0629
     41 H6          2.9275    1.9711   -2.5379 H         1 <0>         0.0614
     42 H7          1.3587    2.0144   -3.3237 H         1 <0>         0.0593
     43 H8          0.3614    1.3894    0.2306 H         1 <0>         0.0841
     44 H9          1.3961    2.6253    0.9302 H         1 <0>         0.0679
     45 H10         0.6501    0.0044   -1.9791 H         1 <0>         0.0826
     46 H11         2.0979   -0.3101   -2.9388 H         1 <0>         0.0383
     47 H12         7.0247   -6.9593   -1.9795 H         1 <0>         0.0556
     48 H13         8.5943   -6.2318   -2.3170 H         1 <0>         0.0415
     49 H14         2.3194    0.3128    1.1832 H         1 <0>         0.0851
     50 H15         7.9285   -7.5282   -4.2621 H         1 <0>         0.0639
     51 H16         2.0299    3.4998   -1.1486 H         1 <0>         0.0584
     52 H17         5.6097   -6.0886   -5.2174 H         1 <0>         0.0401
     53 H18         5.8194   -7.8248   -4.9181 H         1 <0>         0.0440
     54 H19         5.2856   -6.7563   -3.6060 H         1 <0>         0.0459
     55 H20         0.0409    4.0371   -2.2580 H         1 <0>         0.0456
     56 H21        -0.6818    2.4425   -1.9698 H         1 <0>         0.0366
     57 H22        -0.5055    3.5921   -0.6298 H         1 <0>         0.0474
     58 H23         3.2051   -3.0234   -4.4407 H         1 <0>         0.0800
     59 H24         3.7751   -4.3904   -3.4776 H         1 <0>         0.0681
     60 H25         2.1309   -3.8309   -1.6847 H         1 <0>         0.0740
     61 H26         1.5011   -2.5046   -2.6534 H         1 <0>         0.0631
     62 H27         1.5147   -5.4515   -3.6131 H         1 <0>         0.0970
     63 H28         2.2095   -5.1562   -5.2154 H         1 <0>         0.0725
     64 H29         3.7902   -1.3903   -2.5956 H         1 <0>         0.0839
     65 H30         6.7085   -4.6707   -1.3830 H         1 <0>         0.4531
     66 H31        -1.4045   -2.4682   -5.6497 H         1 <0>         0.4798
     67 H32        -0.7043   -2.1267   -7.2008 H         1 <0>         0.4881
     68 H33         2.4019   -3.9178   -6.6506 H         1 <0>         0.4801
     69 H34         1.4928   -2.9601   -7.7839 H         1 <0>         0.4806
     70 H35        -0.1346   -3.8119   -4.0427 H         1 <0>         0.4689
     71 H36         4.3912   -3.6637   -0.7270 H         1 <0>         0.4505
     72 H37         4.9138    2.3532    1.6893 H         1 <0>         0.4443
@<TRIPOS>BOND
     1    1    2 ar
     2    1    3 ar
     3    2    4 ar
     4    3    6 ar
     5    4    5 ar
     6    4   10 1
     7    5    6 ar
     8    5   24 1
     9    6   35 1
    10    7   15 1
    11    7   30 2
    12    7   34 1
    13    8   23 1
    14    8   25 am
    15    8   31 2
    16    9   26 1
    17    9   27 1
    18    9   28 1
    19   10   16 1
    20   11   13 1
    21   11   17 1
    22   12   15 1
    23   12   17 1
    24   13   25 1
    25   14   16 1
    26   14   24 1
    27   15   25 1
    28   16   18 1
    29   17   19 1
    30   20   21 1
    31   20   22 1
    32   21   23 1
    33   22   28 1
    34   23   29 1
    35   29   35 1
    36   32   35 2
    37   33   35 2
    38    1   36 1
    39    2   37 1
    40    3   38 1
    41   10   39 1
    42   10   40 1
    43   11   41 1
    44   11   42 1
    45   12   43 1
    46   12   44 1
    47   13   45 1
    48   13   46 1
    49   14   47 1
    50   14   48 1
    51   15   49 1
    52   16   50 1
    53   17   51 1
    54   18   52 1
    55   18   53 1
    56   18   54 1
    57   19   55 1
    58   19   56 1
    59   19   57 1
    60   20   58 1
    61   20   59 1
    62   21   60 1
    63   21   61 1
    64   22   62 1
    65   22   63 1
    66   23   64 1
    67   24   65 1
    68   26   66 1
    69   26   67 1
    70   27   68 1
    71   27   69 1
    72   28   70 1
    73   29   71 1
    74   34   72 1
@<TRIPOS>MOLECULE
1dwc_ligand_139
   72    74     0     0     0
SMALL
USER_CHARGES

mmff94s_NoEstat = 78.26
@<TRIPOS>ATOM
      1 C1          3.3851   -6.9535   -3.6263 C.ar      1 <0>        -0.1945
      2 C2          3.3992   -7.7960   -2.5167 C.ar      1 <0>        -0.0294
      3 C3          4.0537   -5.7339   -3.5795 C.ar      1 <0>        -0.0143
      4 C4          4.0807   -7.4207   -1.3499 C.ar      1 <0>        -0.1552
      5 C5          4.7838   -6.2010   -1.3046 C.ar      1 <0>         0.3076
      6 C6          4.7448   -5.3596   -2.4260 C.ar      1 <0>        -0.4908
      7 C7          3.6135    0.1593    2.1008 C.2       1 <0>         0.5994
      8 C8          2.9466   -1.3973   -0.6457 C.2       1 <0>         0.6462
      9 C9         -0.3068   -5.0456   -5.0690 C.cat     1 <0>         0.6305
     10 C10         4.0913   -8.3510   -0.1607 C.3       1 <0>        -0.0319
     11 C11         5.5437    1.3083   -0.3397 C.3       1 <0>        -0.0918
     12 C12         3.3133    2.1108    0.6168 C.3       1 <0>        -0.0841
     13 C13         4.6073    0.4410   -1.1741 C.3       1 <0>         0.0870
     14 C14         5.6716   -6.7314    0.9316 C.3       1 <0>         0.2023
     15 C15         3.0358    0.6175    0.7719 C.3       1 <0>         0.0778
     16 C16         4.4488   -7.6292    1.1488 C.3       1 <0>        -0.0746
     17 C17         4.8054    2.4280    0.4117 C.3       1 <0>        -0.0681
     18 C18         3.2581   -6.8461    1.7135 C.3       1 <0>        -0.0944
     19 C19         4.9662    3.7744   -0.2964 C.3       1 <0>        -0.0918
     20 C20         1.1084   -2.3549   -2.7950 C.3       1 <0>        -0.1192
     21 C21         2.4114   -3.0756   -2.4306 C.3       1 <0>        -0.0916
     22 C22         0.0368   -3.3189   -3.2890 C.3       1 <0>         0.1883
     23 C23         3.4544   -2.1251   -1.8653 C.3       1 <0>         0.1952
     24 N1          5.4614   -5.7995   -0.1601 N.pl3     1 <0>        -0.7670
     25 N2          3.5421   -0.1648   -0.3619 N.am      1 <0>        -0.4509
     26 N3          0.1372   -5.7366   -6.1916 N.pl3     1 <0>        -0.8477
     27 N4         -1.5578   -5.3442   -4.5400 N.pl3     1 <0>        -0.8633
     28 N5          0.4778   -4.0586   -4.4628 N.pl3     1 <0>        -0.7419
     29 N6          4.6097   -2.8934   -1.3678 N.pl3     1 <0>        -0.8860
     30 O1          3.3259    0.6306    3.1909 O.2       1 <0>        -0.5199
     31 O2          2.0528   -1.9046    0.0367 O.2       1 <0>        -0.6131
     32 O3          6.8859   -3.9812   -1.8864 O.2       1 <0>        -0.6576
     33 O4          5.4039   -3.2609   -3.7862 O.2       1 <0>        -0.6482
     34 O5          4.5002   -0.8490    1.9151 O.3       1 <0>        -0.6303
     35 S1          5.5613   -3.8008   -2.4493 S.o2      1 <0>         1.5193
     36 H1          2.8501   -7.2466   -4.5256 H         1 <0>         0.1426
     37 H2          2.8716   -8.7458   -2.5612 H         1 <0>         0.1398
     38 H3          4.0446   -5.0667   -4.4357 H         1 <0>         0.1599
     39 H4          3.1161   -8.8419   -0.0549 H         1 <0>         0.0574
     40 H5          4.8358   -9.1334   -0.3561 H         1 <0>         0.0629
     41 H6          6.0425    0.6652    0.3976 H         1 <0>         0.0614
     42 H7          6.3377    1.7214   -0.9727 H         1 <0>         0.0593
     43 H8          2.7432    2.4779   -0.2478 H         1 <0>         0.0841
     44 H9          2.9432    2.6669    1.4876 H         1 <0>         0.0679
     45 H10         4.1201    1.0372   -1.9545 H         1 <0>         0.0826
     46 H11         5.1818   -0.3450   -1.6740 H         1 <0>         0.0383
     47 H12         5.9012   -6.1717    1.8452 H         1 <0>         0.0556
     48 H13         6.5486   -7.3503    0.7056 H         1 <0>         0.0415
     49 H14         1.9534    0.4590    0.8478 H         1 <0>         0.0851
     50 H15         4.7031   -8.3881    1.8990 H         1 <0>         0.0639
     51 H16         5.2803    2.5350    1.3953 H         1 <0>         0.0584
     52 H17         2.4256   -6.8476    1.0036 H         1 <0>         0.0401
     53 H18         2.9129   -7.2938    2.6502 H         1 <0>         0.0440
     54 H19         3.5402   -5.8076    1.9113 H         1 <0>         0.0459
     55 H20         5.9624    4.1882   -0.1137 H         1 <0>         0.0456
     56 H21         4.8337    3.6592   -1.3763 H         1 <0>         0.0366
     57 H22         4.2237    4.4910    0.0673 H         1 <0>         0.0474
     58 H23         0.7341   -1.8112   -1.9193 H         1 <0>         0.0800
     59 H24         1.3022   -1.6154   -3.5806 H         1 <0>         0.0681
     60 H25         2.8001   -3.5947   -3.3165 H         1 <0>         0.0740
     61 H26         2.2014   -3.8505   -1.6824 H         1 <0>         0.0631
     62 H27        -0.8856   -2.7878   -3.5445 H         1 <0>         0.0970
     63 H28        -0.1981   -4.0487   -2.5078 H         1 <0>         0.0725
     64 H29         3.7902   -1.3903   -2.5956 H         1 <0>         0.0839
     65 H30         6.0133   -4.9515   -0.2023 H         1 <0>         0.4531
     66 H31         1.0431   -5.5508   -6.6137 H         1 <0>         0.4798
     67 H32        -0.4401   -6.4525   -6.6266 H         1 <0>         0.4881
     68 H33        -1.9133   -4.8582   -3.7203 H         1 <0>         0.4801
     69 H34        -2.1499   -6.0576   -4.9586 H         1 <0>         0.4806
     70 H35         1.3915   -3.8618   -4.8740 H         1 <0>         0.4689
     71 H36         5.0337   -2.5501   -0.4993 H         1 <0>         0.4505
     72 H37         4.8863   -1.1580    2.7624 H         1 <0>         0.4443
@<TRIPOS>BOND
     1    1    2 ar
     2    1    3 ar
     3    2    4 ar
     4    3    6 ar
     5    4    5 ar
     6    4   10 1
     7    5    6 ar
     8    5   24 1
     9    6   35 1
    10    7   15 1
    11    7   30 2
    12    7   34 1
    13    8   23 1
    14    8   25 am
    15    8   31 2
    16    9   26 1
    17    9   27 1
    18    9   28 1
    19   10   16 1
    20   11   13 1
    21   11   17 1
    22   12   15 1
    23   12   17 1
    24   13   25 1
    25   14   16 1
    26   14   24 1
    27   15   25 1
    28   16   18 1
    29   17   19 1
    30   20   21 1
    31   20   22 1
    32   21   23 1
    33   22   28 1
    34   23   29 1
    35   29   35 1
    36   32   35 2
    37   33   35 2
    38    1   36 1
    39    2   37 1
    40    3   38 1
    41   10   39 1
    42   10   40 1
    43   11   41 1
    44   11   42 1
    45   12   43 1
    46   12   44 1
    47   13   45 1
    48   13   46 1
    49   14   47 1
    50   14   48 1
    51   15   49 1
    52   16   50 1
    53   17   51 1
    54   18   52 1
    55   18   53 1
    56   18   54 1
    57   19   55 1
    58   19   56 1
    59   19   57 1
    60   20   58 1
    61   20   59 1
    62   21   60 1
    63   21   61 1
    64   22   62 1
    65   22   63 1
    66   23   64 1
    67   24   65 1
    68   26   66 1
    69   26   67 1
    70   27   68 1
    71   27   69 1
    72   28   70 1
    73   29   71 1
    74   34   72 1
@<TRIPOS>MOLECULE
1dwc_ligand_140
   72    74     0     0     0
SMALL
USER_CHARGES

mmff94s_NoEstat = 78.30
@<TRIPOS>ATOM
      1 C1         -3.5298   -6.2535    4.3510 C.ar      1 <0>        -0.1945
      2 C2         -4.3901   -6.3642    3.2606 C.ar      1 <0>        -0.0294
      3 C3         -2.9628   -5.0220    4.6653 C.ar      1 <0>        -0.0143
      4 C4         -4.6918   -5.2398    2.4790 C.ar      1 <0>        -0.1552
      5 C5         -4.0992   -3.9956    2.7730 C.ar      1 <0>         0.3076
      6 C6         -3.2482   -3.9013    3.8837 C.ar      1 <0>        -0.4908
      7 C7          3.7233   -2.4449    4.7893 C.2       1 <0>         0.5994
      8 C8          0.8654   -1.4427    3.2413 C.2       1 <0>         0.6462
      9 C9         -0.0382   -5.7761   -1.6019 C.cat     1 <0>         0.6305
     10 C10        -5.6204   -5.3796    1.2965 C.3       1 <0>        -0.0319
     11 C11         1.7658    0.4222    6.2790 C.3       1 <0>        -0.0918
     12 C12         2.2228   -2.0030    6.6989 C.3       1 <0>        -0.0841
     13 C13         1.9003    0.1799    4.7810 C.3       1 <0>         0.0870
     14 C14        -5.1062   -2.9837    0.7664 C.3       1 <0>         0.2023
     15 C15         2.2690   -2.2605    5.1905 C.3       1 <0>         0.0778
     16 C16        -6.2232   -4.0248    0.8929 C.3       1 <0>        -0.0746
     17 C17         2.6202   -0.5689    7.0736 C.3       1 <0>        -0.0681
     18 C18        -7.0091   -4.1462   -0.4097 C.3       1 <0>        -0.0944
     19 C19         2.4647   -0.3375    8.5754 C.3       1 <0>        -0.0918
     20 C20        -0.5404   -4.8511    2.0458 C.3       1 <0>        -0.1192
     21 C21         0.3004   -3.5693    2.0376 C.3       1 <0>        -0.0916
     22 C22        -0.1768   -5.7847    0.8978 C.3       1 <0>         0.1883
     23 C23        -0.0078   -2.6730    3.2260 C.3       1 <0>         0.1952
     24 N1         -4.3801   -2.8644    2.0167 N.pl3     1 <0>        -0.7670
     25 N2          1.5999   -1.2067    4.4091 N.am      1 <0>        -0.4509
     26 N3         -0.2239   -5.1414   -2.8257 N.pl3     1 <0>        -0.8477
     27 N4          0.4773   -7.0675   -1.5794 N.pl3     1 <0>        -0.8633
     28 N5         -0.3589   -5.1430   -0.3963 N.pl3     1 <0>        -0.7419
     29 N6         -1.3760   -2.1385    3.1042 N.pl3     1 <0>        -0.8860
     30 O1          4.6129   -2.8312    5.5328 O.2       1 <0>        -0.5199
     31 O2          0.8891   -0.7105    2.2483 O.2       1 <0>        -0.6131
     32 O3         -3.5166   -1.3454    4.2968 O.2       1 <0>        -0.6576
     33 O4         -1.7865   -2.6277    5.5955 O.2       1 <0>        -0.6482
     34 O5          3.9056   -2.1185    3.4864 O.3       1 <0>        -0.6303
     35 S1         -2.5018   -2.3799    4.3583 S.o2      1 <0>         1.5193
     36 H1         -3.3049   -7.1268    4.9571 H         1 <0>         0.1426
     37 H2         -4.8309   -7.3297    3.0242 H         1 <0>         0.1398
     38 H3         -2.2961   -4.9225    5.5159 H         1 <0>         0.1599
     39 H4         -5.0522   -5.8078    0.4610 H         1 <0>         0.0574
     40 H5         -6.4331   -6.0751    1.5397 H         1 <0>         0.0629
     41 H6          2.0669    1.4503    6.5123 H         1 <0>         0.0614
     42 H7          0.7128    0.3207    6.5714 H         1 <0>         0.0593
     43 H8          1.1978   -2.1858    7.0494 H         1 <0>         0.0841
     44 H9          2.8666   -2.7151    7.2306 H         1 <0>         0.0679
     45 H10         1.2456    0.8722    4.2416 H         1 <0>         0.0826
     46 H11         2.9258    0.3867    4.4518 H         1 <0>         0.0383
     47 H12        -4.4091   -3.2616   -0.0338 H         1 <0>         0.0556
     48 H13        -5.5272   -2.0065    0.5046 H         1 <0>         0.0415
     49 H14         1.7884   -3.2235    4.9909 H         1 <0>         0.0851
     50 H15        -6.9191   -3.7005    1.6784 H         1 <0>         0.0639
     51 H16         3.6763   -0.4106    6.8224 H         1 <0>         0.0584
     52 H17        -7.6317   -3.2604   -0.5670 H         1 <0>         0.0401
     53 H18        -6.3292   -4.2450   -1.2612 H         1 <0>         0.0440
     54 H19        -7.6604   -5.0250   -0.3851 H         1 <0>         0.0459
     55 H20         2.1532   -1.2591    9.0761 H         1 <0>         0.0456
     56 H21         3.4121   -0.0103    9.0142 H         1 <0>         0.0366
     57 H22         1.7112    0.4316    8.7697 H         1 <0>         0.0474
     58 H23        -0.4002   -5.3741    2.9994 H         1 <0>         0.0800
     59 H24        -1.6035   -4.5964    1.9658 H         1 <0>         0.0681
     60 H25         0.1357   -3.0322    1.0943 H         1 <0>         0.0740
     61 H26         1.3654   -3.8328    2.0643 H         1 <0>         0.0631
     62 H27        -0.7862   -6.6937    0.9190 H         1 <0>         0.0970
     63 H28         0.8744   -6.0800    0.9749 H         1 <0>         0.0725
     64 H29         0.1003   -3.1895    4.1787 H         1 <0>         0.0839
     65 H30        -3.8731   -2.0116    2.2195 H         1 <0>         0.4531
     66 H31        -0.5995   -4.1991   -2.8910 H         1 <0>         0.4798
     67 H32         0.0114   -5.6094   -3.6979 H         1 <0>         0.4881
     68 H33         0.6256   -7.5607   -0.7023 H         1 <0>         0.4801
     69 H34         0.7207   -7.5524   -2.4398 H         1 <0>         0.4806
     70 H35        -0.7354   -4.1951   -0.4451 H         1 <0>         0.4689
     71 H36        -1.4850   -1.3266    2.4871 H         1 <0>         0.4505
     72 H37         4.8398   -2.2291    3.2082 H         1 <0>         0.4443
@<TRIPOS>BOND
     1    1    2 ar
     2    1    3 ar
     3    2    4 ar
     4    3    6 ar
     5    4    5 ar
     6    4   10 1
     7    5    6 ar
     8    5   24 1
     9    6   35 1
    10    7   15 1
    11    7   30 2
    12    7   34 1
    13    8   23 1
    14    8   25 am
    15    8   31 2
    16    9   26 1
    17    9   27 1
    18    9   28 1
    19   10   16 1
    20   11   13 1
    21   11   17 1
    22   12   15 1
    23   12   17 1
    24   13   25 1
    25   14   16 1
    26   14   24 1
    27   15   25 1
    28   16   18 1
    29   17   19 1
    30   20   21 1
    31   20   22 1
    32   21   23 1
    33   22   28 1
    34   23   29 1
    35   29   35 1
    36   32   35 2
    37   33   35 2
    38    1   36 1
    39    2   37 1
    40    3   38 1
    41   10   39 1
    42   10   40 1
    43   11   41 1
    44   11   42 1
    45   12   43 1
    46   12   44 1
    47   13   45 1
    48   13   46 1
    49   14   47 1
    50   14   48 1
    51   15   49 1
    52   16   50 1
    53   17   51 1
    54   18   52 1
    55   18   53 1
    56   18   54 1
    57   19   55 1
    58   19   56 1
    59   19   57 1
    60   20   58 1
    61   20   59 1
    62   21   60 1
    63   21   61 1
    64   22   62 1
    65   22   63 1
    66   23   64 1
    67   24   65 1
    68   26   66 1
    69   26   67 1
    70   27   68 1
    71   27   69 1
    72   28   70 1
    73   29   71 1
    74   34   72 1
@<TRIPOS>MOLECULE
1dwc_ligand_141
   72    74     0     0     0
SMALL
USER_CHARGES

mmff94s_NoEstat = 78.32
@<TRIPOS>ATOM
      1 C1         -0.5523    1.6744    5.9041 C.ar      1 <0>        -0.1945
      2 C2         -0.9694    2.6552    5.0066 C.ar      1 <0>        -0.0294
      3 C3         -0.9569    0.3546    5.7269 C.ar      1 <0>        -0.0143
      4 C4         -1.7923    2.3195    3.9220 C.ar      1 <0>        -0.1552
      5 C5         -2.2299    0.9909    3.7521 C.ar      1 <0>         0.3076
      6 C6         -1.7869    0.0155    4.6571 C.ar      1 <0>        -0.4908
      7 C7          2.5084    0.3236    5.6389 C.2       1 <0>         0.5994
      8 C8          0.8654   -1.4427    3.2413 C.2       1 <0>         0.6462
      9 C9          1.7699   -7.1193    0.0630 C.cat     1 <0>         0.6305
     10 C10        -2.2407    3.3967    2.9635 C.3       1 <0>        -0.0319
     11 C11         3.7918   -3.1079    4.7178 C.3       1 <0>        -0.0918
     12 C12         4.3679   -0.6960    4.3756 C.3       1 <0>        -0.0841
     13 C13         2.3136   -2.7413    4.7550 C.3       1 <0>         0.0870
     14 C14        -3.6561    1.6489    1.8554 C.3       1 <0>         0.2023
     15 C15         2.8792   -0.3425    4.3241 C.3       1 <0>         0.0778
     16 C16        -2.6763    2.8021    1.6150 C.3       1 <0>        -0.0746
     17 C17         4.6572   -1.9474    5.2154 C.3       1 <0>        -0.0681
     18 C18        -3.2993    3.8738    0.7246 C.3       1 <0>        -0.0944
     19 C19         6.1396   -2.3107    5.1549 C.3       1 <0>        -0.0918
     20 C20        -0.5404   -4.8511    2.0458 C.3       1 <0>        -0.1192
     21 C21         0.3004   -3.5693    2.0376 C.3       1 <0>        -0.0916
     22 C22        -0.1768   -5.7847    0.8978 C.3       1 <0>         0.1883
     23 C23        -0.0078   -2.6730    3.2260 C.3       1 <0>         0.1952
     24 N1         -3.0449    0.6290    2.6865 N.pl3     1 <0>        -0.7670
     25 N2          2.0252   -1.5038    4.0223 N.am      1 <0>        -0.4509
     26 N3          3.1011   -7.5120    0.1550 N.pl3     1 <0>        -0.8477
     27 N4          0.9786   -7.6393   -0.9556 N.pl3     1 <0>        -0.8633
     28 N5          1.2122   -6.2141    0.9723 N.pl3     1 <0>        -0.7419
     29 N6         -1.3760   -2.1385    3.1042 N.pl3     1 <0>        -0.8860
     30 O1          2.0403   -0.2521    6.6099 O.2       1 <0>        -0.5199
     31 O2          0.5240   -0.4555    2.5844 O.2       1 <0>        -0.6131
     32 O3         -1.7140   -2.3916    5.6449 O.2       1 <0>        -0.6576
     33 O4         -3.6601   -1.7094    4.2056 O.2       1 <0>        -0.6482
     34 O5          2.7656    1.6536    5.5910 O.3       1 <0>        -0.6303
     35 S1         -2.2397   -1.6774    4.4970 S.o2      1 <0>         1.5193
     36 H1          0.0908    1.9391    6.7389 H         1 <0>         0.1426
     37 H2         -0.6459    3.6833    5.1512 H         1 <0>         0.1398
     38 H3         -0.6333   -0.4189    6.4161 H         1 <0>         0.1599
     39 H4         -3.0724    3.9441    3.4249 H         1 <0>         0.0574
     40 H5         -1.4243    4.1094    2.7937 H         1 <0>         0.0629
     41 H6          3.9641   -3.9977    5.3349 H         1 <0>         0.0614
     42 H7          4.0768   -3.3683    3.6904 H         1 <0>         0.0593
     43 H8          4.7163   -0.8743    3.3490 H         1 <0>         0.0841
     44 H9          4.9510    0.1500    4.7611 H         1 <0>         0.0679
     45 H10         1.7240   -3.5716    4.3527 H         1 <0>         0.0826
     46 H11         1.9849   -2.5868    5.7898 H         1 <0>         0.0383
     47 H12        -4.5696    2.0142    2.3409 H         1 <0>         0.0556
     48 H13        -3.9536    1.1996    0.9014 H         1 <0>         0.0415
     49 H14         2.7341    0.4259    3.5582 H         1 <0>         0.0851
     50 H15        -1.7894    2.4087    1.1001 H         1 <0>         0.0639
     51 H16         4.4098   -1.7422    6.2643 H         1 <0>         0.0584
     52 H17        -3.3831    3.5161   -0.3060 H         1 <0>         0.0401
     53 H18        -4.3001    4.1356    1.0809 H         1 <0>         0.0440
     54 H19        -2.6852    4.7793    0.7260 H         1 <0>         0.0459
     55 H20         6.6929   -1.5714    4.5681 H         1 <0>         0.0456
     56 H21         6.5688   -2.3436    6.1607 H         1 <0>         0.0366
     57 H22         6.2762   -3.2916    4.6898 H         1 <0>         0.0474
     58 H23        -0.4002   -5.3741    2.9994 H         1 <0>         0.0800
     59 H24        -1.6035   -4.5964    1.9658 H         1 <0>         0.0681
     60 H25         0.1357   -3.0322    1.0943 H         1 <0>         0.0740
     61 H26         1.3654   -3.8328    2.0643 H         1 <0>         0.0631
     62 H27        -0.3350   -5.3004   -0.0711 H         1 <0>         0.0970
     63 H28        -0.8024   -6.6822    0.9336 H         1 <0>         0.0725
     64 H29         0.1003   -3.1895    4.1787 H         1 <0>         0.0839
     65 H30        -3.3945   -0.3205    2.6487 H         1 <0>         0.4531
     66 H31         3.7173   -7.1568    0.8813 H         1 <0>         0.4798
     67 H32         3.4989   -8.1703   -0.5108 H         1 <0>         0.4881
     68 H33         0.0016   -7.3736   -1.0521 H         1 <0>         0.4801
     69 H34         1.3562   -8.3001   -1.6305 H         1 <0>         0.4806
     70 H35         1.8180   -5.8498    1.7091 H         1 <0>         0.4689
     71 H36        -1.6042   -1.6955    2.2078 H         1 <0>         0.4505
     72 H37         2.5309    2.1027    6.4310 H         1 <0>         0.4443
@<TRIPOS>BOND
     1    1    2 ar
     2    1    3 ar
     3    2    4 ar
     4    3    6 ar
     5    4    5 ar
     6    4   10 1
     7    5    6 ar
     8    5   24 1
     9    6   35 1
    10    7   15 1
    11    7   30 2
    12    7   34 1
    13    8   23 1
    14    8   25 am
    15    8   31 2
    16    9   26 1
    17    9   27 1
    18    9   28 1
    19   10   16 1
    20   11   13 1
    21   11   17 1
    22   12   15 1
    23   12   17 1
    24   13   25 1
    25   14   16 1
    26   14   24 1
    27   15   25 1
    28   16   18 1
    29   17   19 1
    30   20   21 1
    31   20   22 1
    32   21   23 1
    33   22   28 1
    34   23   29 1
    35   29   35 1
    36   32   35 2
    37   33   35 2
    38    1   36 1
    39    2   37 1
    40    3   38 1
    41   10   39 1
    42   10   40 1
    43   11   41 1
    44   11   42 1
    45   12   43 1
    46   12   44 1
    47   13   45 1
    48   13   46 1
    49   14   47 1
    50   14   48 1
    51   15   49 1
    52   16   50 1
    53   17   51 1
    54   18   52 1
    55   18   53 1
    56   18   54 1
    57   19   55 1
    58   19   56 1
    59   19   57 1
    60   20   58 1
    61   20   59 1
    62   21   60 1
    63   21   61 1
    64   22   62 1
    65   22   63 1
    66   23   64 1
    67   24   65 1
    68   26   66 1
    69   26   67 1
    70   27   68 1
    71   27   69 1
    72   28   70 1
    73   29   71 1
    74   34   72 1
@<TRIPOS>MOLECULE
1dwc_ligand_142
   72    74     0     0     0
SMALL
USER_CHARGES

mmff94s_NoEstat = 78.32
@<TRIPOS>ATOM
      1 C1         -2.8852   -6.7028    4.6044 C.ar      1 <0>        -0.1945
      2 C2         -2.7574   -6.8464    5.9843 C.ar      1 <0>        -0.0294
      3 C3         -1.8117   -6.2329    3.8538 C.ar      1 <0>        -0.0143
      4 C4         -1.5535   -6.5163    6.6233 C.ar      1 <0>        -0.1552
      5 C5         -0.4531   -6.0672    5.8671 C.ar      1 <0>         0.3076
      6 C6         -0.6063   -5.9145    4.4813 C.ar      1 <0>        -0.4908
      7 C7          1.0326   -1.5891   -0.1526 C.2       1 <0>         0.5994
      8 C8          0.8654   -1.4427    3.2413 C.2       1 <0>         0.6462
      9 C9         -3.9874   -0.8867    6.6209 C.cat     1 <0>         0.6305
     10 C10        -1.4319   -6.6865    8.1186 C.3       1 <0>        -0.0319
     11 C11         4.0928   -0.4819    1.7658 C.3       1 <0>        -0.0918
     12 C12         3.2369   -2.4756    0.5172 C.3       1 <0>        -0.0841
     13 C13         2.6673   -0.1389    2.1793 C.3       1 <0>         0.0870
     14 C14         0.9870   -6.0549    7.8660 C.3       1 <0>         0.2023
     15 C15         1.8171   -2.1794    1.0075 C.3       1 <0>         0.0778
     16 C16        -0.2760   -5.8653    8.7129 C.3       1 <0>        -0.0746
     17 C17         4.1123   -1.2187    0.4240 C.3       1 <0>        -0.0681
     18 C18        -0.6451   -4.3852    8.8648 C.3       1 <0>        -0.0944
     19 C19         5.5413   -1.5810    0.0243 C.3       1 <0>        -0.0918
     20 C20        -2.1115   -1.2711    3.3990 C.3       1 <0>        -0.1192
     21 C21        -1.3133   -2.4479    3.9716 C.3       1 <0>        -0.0916
     22 C22        -3.3821   -0.9970    4.1941 C.3       1 <0>         0.1883
     23 C23        -0.0078   -2.6730    3.2260 C.3       1 <0>         0.1952
     24 N1          0.7493   -5.7256    6.4733 N.pl3     1 <0>        -0.7670
     25 N2          1.7920   -1.3156    2.2000 N.am      1 <0>        -0.4509
     26 N3         -3.6805   -0.5461    7.9341 N.pl3     1 <0>        -0.8477
     27 N4         -5.2158   -1.4764    6.3429 N.pl3     1 <0>        -0.8633
     28 N5         -3.0875   -0.6486    5.5765 N.pl3     1 <0>        -0.7419
     29 N6          0.7961   -3.6905    3.9267 N.pl3     1 <0>        -0.8860
     30 O1          0.8941   -0.3947   -0.3706 O.2       1 <0>        -0.5199
     31 O2          0.7326   -0.6231    4.1542 O.2       1 <0>        -0.6131
     32 O3          1.9178   -6.0078    3.8522 O.2       1 <0>        -0.6576
     33 O4          0.2309   -5.3989    2.0892 O.2       1 <0>        -0.6482
     34 O5          0.4997   -2.5717   -0.9193 O.3       1 <0>        -0.6303
     35 S1          0.6998   -5.3249    3.4597 S.o2      1 <0>         1.5193
     36 H1         -3.8225   -6.9542    4.1154 H         1 <0>         0.1426
     37 H2         -3.6024   -7.2116    6.5633 H         1 <0>         0.1398
     38 H3         -1.9015   -6.1112    2.7788 H         1 <0>         0.1599
     39 H4         -2.3718   -6.4061    8.6096 H         1 <0>         0.0574
     40 H5         -1.2585   -7.7513    8.3199 H         1 <0>         0.0629
     41 H6          4.6862    0.4377    1.6990 H         1 <0>         0.0614
     42 H7          4.5556   -1.1085    2.5390 H         1 <0>         0.0593
     43 H8          3.7056   -3.1781    1.2199 H         1 <0>         0.0841
     44 H9          3.2100   -2.9795   -0.4573 H         1 <0>         0.0679
     45 H10         2.6813    0.3462    3.1608 H         1 <0>         0.0826
     46 H11         2.2276    0.5771    1.4744 H         1 <0>         0.0383
     47 H12         1.8016   -5.4313    8.2507 H         1 <0>         0.0556
     48 H13         1.3225   -7.0973    7.9316 H         1 <0>         0.0415
     49 H14         1.3264   -3.1308    1.2358 H         1 <0>         0.0851
     50 H15        -0.0760   -6.2391    9.7247 H         1 <0>         0.0639
     51 H16         3.7098   -0.5563   -0.3523 H         1 <0>         0.0584
     52 H17        -1.6128   -4.1805    8.3973 H         1 <0>         0.0401
     53 H18        -0.7085   -4.1113    9.9222 H         1 <0>         0.0440
     54 H19         0.1084   -3.7505    8.3890 H         1 <0>         0.0459
     55 H20         5.5642   -2.5489   -0.4852 H         1 <0>         0.0456
     56 H21         5.9547   -0.8262   -0.6513 H         1 <0>         0.0366
     57 H22         6.1838   -1.6417    0.9078 H         1 <0>         0.0474
     58 H23        -1.4838   -0.3719    3.3933 H         1 <0>         0.0800
     59 H24        -2.3885   -1.4831    2.3599 H         1 <0>         0.0681
     60 H25        -1.9335   -3.3536    3.9489 H         1 <0>         0.0740
     61 H26        -1.0849   -2.2531    5.0271 H         1 <0>         0.0631
     62 H27        -4.0449   -1.8681    4.1933 H         1 <0>         0.0970
     63 H28        -3.9265   -0.1572    3.7507 H         1 <0>         0.0725
     64 H29        -0.1638   -2.9774    2.1921 H         1 <0>         0.0839
     65 H30         1.5327   -5.4807    5.8802 H         1 <0>         0.4531
     66 H31        -2.7945   -0.1152    8.1846 H         1 <0>         0.4798
     67 H32        -4.3405   -0.7234    8.6878 H         1 <0>         0.4881
     68 H33        -5.4724   -1.7381    5.3941 H         1 <0>         0.4801
     69 H34        -5.8906   -1.6606    7.0814 H         1 <0>         0.4806
     70 H35        -2.1937   -0.2143    5.8119 H         1 <0>         0.4689
     71 H36         1.6533   -3.3509    4.3757 H         1 <0>         0.4505
     72 H37        -0.0129   -2.2104   -1.6737 H         1 <0>         0.4443
@<TRIPOS>BOND
     1    1    2 ar
     2    1    3 ar
     3    2    4 ar
     4    3    6 ar
     5    4    5 ar
     6    4   10 1
     7    5    6 ar
     8    5   24 1
     9    6   35 1
    10    7   15 1
    11    7   30 2
    12    7   34 1
    13    8   23 1
    14    8   25 am
    15    8   31 2
    16    9   26 1
    17    9   27 1
    18    9   28 1
    19   10   16 1
    20   11   13 1
    21   11   17 1
    22   12   15 1
    23   12   17 1
    24   13   25 1
    25   14   16 1
    26   14   24 1
    27   15   25 1
    28   16   18 1
    29   17   19 1
    30   20   21 1
    31   20   22 1
    32   21   23 1
    33   22   28 1
    34   23   29 1
    35   29   35 1
    36   32   35 2
    37   33   35 2
    38    1   36 1
    39    2   37 1
    40    3   38 1
    41   10   39 1
    42   10   40 1
    43   11   41 1
    44   11   42 1
    45   12   43 1
    46   12   44 1
    47   13   45 1
    48   13   46 1
    49   14   47 1
    50   14   48 1
    51   15   49 1
    52   16   50 1
    53   17   51 1
    54   18   52 1
    55   18   53 1
    56   18   54 1
    57   19   55 1
    58   19   56 1
    59   19   57 1
    60   20   58 1
    61   20   59 1
    62   21   60 1
    63   21   61 1
    64   22   62 1
    65   22   63 1
    66   23   64 1
    67   24   65 1
    68   26   66 1
    69   26   67 1
    70   27   68 1
    71   27   69 1
    72   28   70 1
    73   29   71 1
    74   34   72 1
@<TRIPOS>MOLECULE
1dwc_ligand_143
   72    74     0     0     0
SMALL
USER_CHARGES

mmff94s_NoEstat = 78.33
@<TRIPOS>ATOM
      1 C1          0.2729   -5.6236   -0.4407 C.ar      1 <0>        -0.1945
      2 C2         -0.6484   -6.6112   -0.0987 C.ar      1 <0>        -0.0294
      3 C3          1.0504   -5.0282    0.5480 C.ar      1 <0>        -0.0143
      4 C4         -0.8004   -7.0071    1.2380 C.ar      1 <0>        -0.1552
      5 C5          0.0031   -6.4297    2.2408 C.ar      1 <0>         0.3076
      6 C6          0.9136   -5.4263    1.8789 C.ar      1 <0>        -0.4908
      7 C7         -1.4628    0.1636    1.3526 C.2       1 <0>         0.5994
      8 C8          0.8654   -1.4427    3.2413 C.2       1 <0>         0.6462
      9 C9         -3.2174   -1.4380    8.5188 C.cat     1 <0>         0.6305
     10 C10        -1.7983   -8.0848    1.5877 C.3       1 <0>        -0.0319
     11 C11         2.1918    0.8805    0.7195 C.3       1 <0>        -0.0918
     12 C12         0.2821   -0.3679   -0.3105 C.3       1 <0>        -0.0841
     13 C13         1.6113    0.6116    2.1020 C.3       1 <0>         0.0870
     14 C14        -0.9225   -7.9557    3.9392 C.3       1 <0>         0.2023
     15 C15        -0.2506   -0.7126    1.0828 C.3       1 <0>         0.0778
     16 C16        -2.1834   -8.0707    3.0760 C.3       1 <0>        -0.0746
     17 C17         1.0859    0.9390   -0.3376 C.3       1 <0>        -0.0681
     18 C18        -3.1963   -6.9649    3.3941 C.3       1 <0>        -0.0944
     19 C19         1.6740    1.1859   -1.7255 C.3       1 <0>        -0.0918
     20 C20        -1.0866   -2.1427    5.4567 C.3       1 <0>        -0.1192
     21 C21        -1.3133   -2.4479    3.9716 C.3       1 <0>        -0.0916
     22 C22        -2.3970   -1.9935    6.2196 C.3       1 <0>         0.1883
     23 C23        -0.0078   -2.6730    3.2260 C.3       1 <0>         0.1952
     24 N1         -0.1305   -6.7964    3.5741 N.pl3     1 <0>        -0.7670
     25 N2          0.7744   -0.5925    2.1333 N.am      1 <0>        -0.4509
     26 N3         -2.9736   -1.1414    9.8558 N.pl3     1 <0>        -0.8477
     27 N4         -4.5309   -1.4955    8.0658 N.pl3     1 <0>        -0.8633
     28 N5         -2.1703   -1.6789    7.6229 N.pl3     1 <0>        -0.7419
     29 N6          0.7961   -3.6905    3.9267 N.pl3     1 <0>        -0.8860
     30 O1         -1.4385    1.2323    1.9447 O.2       1 <0>        -0.5199
     31 O2          1.6103   -1.2468    4.2054 O.2       1 <0>        -0.6131
     32 O3          2.4834   -5.6363    3.9445 O.2       1 <0>        -0.6576
     33 O4          2.8151   -3.7334    2.3342 O.2       1 <0>        -0.6482
     34 O5         -2.5854   -0.4037    0.8474 O.3       1 <0>        -0.6303
     35 S1          1.9328   -4.6215    3.0666 S.o2      1 <0>         1.5193
     36 H1          0.3819   -5.3163   -1.4773 H         1 <0>         0.1426
     37 H2         -1.2538   -7.0689   -0.8775 H         1 <0>         0.1398
     38 H3          1.7672   -4.2535    0.2943 H         1 <0>         0.1599
     39 H4         -2.7011   -7.9788    0.9739 H         1 <0>         0.0574
     40 H5         -1.3433   -9.0529    1.3421 H         1 <0>         0.0629
     41 H6          2.7495    1.8244    0.7335 H         1 <0>         0.0614
     42 H7          2.9066    0.0878    0.4640 H         1 <0>         0.0593
     43 H8          0.9336   -1.1873   -0.6438 H         1 <0>         0.0841
     44 H9         -0.5414   -0.3095   -1.0336 H         1 <0>         0.0679
     45 H10         2.4269    0.5309    2.8282 H         1 <0>         0.0826
     46 H11         0.9807    1.4504    2.4206 H         1 <0>         0.0383
     47 H12        -1.1905   -7.8906    4.9997 H         1 <0>         0.0556
     48 H13        -0.3087   -8.8568    3.8183 H         1 <0>         0.0415
     49 H14        -0.6325   -1.7382    1.0612 H         1 <0>         0.0851
     50 H15        -2.6797   -9.0207    3.3097 H         1 <0>         0.0639
     51 H16         0.4173    1.7778   -0.1080 H         1 <0>         0.0584
     52 H17        -3.3457   -6.3186    2.5240 H         1 <0>         0.0401
     53 H18        -4.1623   -7.3968    3.6724 H         1 <0>         0.0440
     54 H19        -2.8427   -6.3474    4.2251 H         1 <0>         0.0459
     55 H20         1.1081    0.6390   -2.4855 H         1 <0>         0.0456
     56 H21         1.6425    2.2512   -1.9725 H         1 <0>         0.0366
     57 H22         2.7156    0.8534   -1.7662 H         1 <0>         0.0474
     58 H23        -0.4913   -2.9455    5.9081 H         1 <0>         0.0800
     59 H24        -0.5143   -1.2136    5.5600 H         1 <0>         0.0681
     60 H25        -1.8840   -1.6286    3.5148 H         1 <0>         0.0740
     61 H26        -1.9315   -3.3495    3.8758 H         1 <0>         0.0631
     62 H27        -2.9930   -2.9100    6.1652 H         1 <0>         0.0970
     63 H28        -2.9889   -1.1790    5.7901 H         1 <0>         0.0725
     64 H29        -0.1638   -2.9774    2.1921 H         1 <0>         0.0839
     65 H30         0.5206   -6.4083    4.2456 H         1 <0>         0.4531
     66 H31        -2.0306   -1.0905   10.2318 H         1 <0>         0.4798
     67 H32        -3.7410   -0.9681   10.5009 H         1 <0>         0.4881
     68 H33        -4.7448   -1.7097    7.0948 H         1 <0>         0.4801
     69 H34        -5.3125   -1.3238    8.6938 H         1 <0>         0.4806
     70 H35        -1.2168   -1.6295    7.9850 H         1 <0>         0.4689
     71 H36         0.9382   -3.5340    4.9302 H         1 <0>         0.4505
     72 H37        -3.3805    0.1466    1.0133 H         1 <0>         0.4443
@<TRIPOS>BOND
     1    1    2 ar
     2    1    3 ar
     3    2    4 ar
     4    3    6 ar
     5    4    5 ar
     6    4   10 1
     7    5    6 ar
     8    5   24 1
     9    6   35 1
    10    7   15 1
    11    7   30 2
    12    7   34 1
    13    8   23 1
    14    8   25 am
    15    8   31 2
    16    9   26 1
    17    9   27 1
    18    9   28 1
    19   10   16 1
    20   11   13 1
    21   11   17 1
    22   12   15 1
    23   12   17 1
    24   13   25 1
    25   14   16 1
    26   14   24 1
    27   15   25 1
    28   16   18 1
    29   17   19 1
    30   20   21 1
    31   20   22 1
    32   21   23 1
    33   22   28 1
    34   23   29 1
    35   29   35 1
    36   32   35 2
    37   33   35 2
    38    1   36 1
    39    2   37 1
    40    3   38 1
    41   10   39 1
    42   10   40 1
    43   11   41 1
    44   11   42 1
    45   12   43 1
    46   12   44 1
    47   13   45 1
    48   13   46 1
    49   14   47 1
    50   14   48 1
    51   15   49 1
    52   16   50 1
    53   17   51 1
    54   18   52 1
    55   18   53 1
    56   18   54 1
    57   19   55 1
    58   19   56 1
    59   19   57 1
    60   20   58 1
    61   20   59 1
    62   21   60 1
    63   21   61 1
    64   22   62 1
    65   22   63 1
    66   23   64 1
    67   24   65 1
    68   26   66 1
    69   26   67 1
    70   27   68 1
    71   27   69 1
    72   28   70 1
    73   29   71 1
    74   34   72 1
@<TRIPOS>MOLECULE
1dwc_ligand_144
   72    74     0     0     0
SMALL
USER_CHARGES

mmff94s_NoEstat = 78.33
@<TRIPOS>ATOM
      1 C1          3.8129   -2.1800    0.5043 C.ar      1 <0>        -0.1945
      2 C2          4.6808   -1.4544    1.3175 C.ar      1 <0>        -0.0294
      3 C3          2.9825   -3.1461    1.0644 C.ar      1 <0>        -0.0143
      4 C4          4.7260   -1.6944    2.6985 C.ar      1 <0>        -0.1552
      5 C5          3.8683   -2.6504    3.2771 C.ar      1 <0>         0.3076
      6 C6          3.0129   -3.3814    2.4399 C.ar      1 <0>        -0.4908
      7 C7         -1.4628    0.1636    1.3526 C.2       1 <0>         0.5994
      8 C8          0.8654   -1.4427    3.2413 C.2       1 <0>         0.6462
      9 C9         -5.1550   -2.5406    2.8628 C.cat     1 <0>         0.6305
     10 C10         5.6674   -0.8921    3.5643 C.3       1 <0>        -0.0319
     11 C11         2.1918    0.8805    0.7195 C.3       1 <0>        -0.0918
     12 C12         0.2821   -0.3679   -0.3105 C.3       1 <0>        -0.0841
     13 C13         1.6113    0.6116    2.1020 C.3       1 <0>         0.0870
     14 C14         4.6288   -2.0446    5.5409 C.3       1 <0>         0.2023
     15 C15        -0.2506   -0.7126    1.0828 C.3       1 <0>         0.0778
     16 C16         5.9450   -1.5685    4.9167 C.3       1 <0>        -0.0746
     17 C17         1.0859    0.9390   -0.3376 C.3       1 <0>        -0.0681
     18 C18         6.9614   -2.7088    4.7877 C.3       1 <0>        -0.0944
     19 C19         1.6740    1.1859   -1.7255 C.3       1 <0>        -0.0918
     20 C20        -2.2331   -3.6727    3.9110 C.3       1 <0>        -0.1192
     21 C21        -1.3133   -2.4479    3.9716 C.3       1 <0>        -0.0916
     22 C22        -3.5726   -3.4201    4.5920 C.3       1 <0>         0.1883
     23 C23        -0.0078   -2.6730    3.2260 C.3       1 <0>         0.1952
     24 N1          3.8960   -2.9148    4.6407 N.pl3     1 <0>        -0.7670
     25 N2          0.7744   -0.5925    2.1333 N.am      1 <0>        -0.4509
     26 N3         -5.8450   -1.4865    2.2730 N.pl3     1 <0>        -0.8477
     27 N4         -5.3158   -3.8250    2.3544 N.pl3     1 <0>        -0.8633
     28 N5         -4.3046   -2.3352    3.9546 N.pl3     1 <0>        -0.7419
     29 N6          0.7961   -3.6905    3.9267 N.pl3     1 <0>        -0.8860
     30 O1         -1.4385    1.2323    1.9447 O.2       1 <0>        -0.5199
     31 O2          1.6103   -1.2468    4.2054 O.2       1 <0>        -0.6131
     32 O3          1.2775   -5.2555    1.9386 O.2       1 <0>        -0.6576
     33 O4          2.7012   -5.4164    4.0053 O.2       1 <0>        -0.6482
     34 O5         -2.5854   -0.4037    0.8474 O.3       1 <0>        -0.6303
     35 S1          1.9328   -4.6215    3.0666 S.o2      1 <0>         1.5193
     36 H1          3.7867   -1.9943   -0.5661 H         1 <0>         0.1426
     37 H2          5.3282   -0.7035    0.8708 H         1 <0>         0.1398
     38 H3          2.3066   -3.7218    0.4399 H         1 <0>         0.1599
     39 H4          6.6144   -0.7219    3.0378 H         1 <0>         0.0574
     40 H5          5.2057    0.0881    3.7395 H         1 <0>         0.0629
     41 H6          2.7495    1.8244    0.7335 H         1 <0>         0.0614
     42 H7          2.9066    0.0878    0.4640 H         1 <0>         0.0593
     43 H8          0.9336   -1.1873   -0.6438 H         1 <0>         0.0841
     44 H9         -0.5414   -0.3095   -1.0336 H         1 <0>         0.0679
     45 H10         2.4269    0.5309    2.8282 H         1 <0>         0.0826
     46 H11         0.9807    1.4504    2.4206 H         1 <0>         0.0383
     47 H12         4.8217   -2.5758    6.4796 H         1 <0>         0.0556
     48 H13         4.0016   -1.1785    5.7856 H         1 <0>         0.0415
     49 H14        -0.6325   -1.7382    1.0612 H         1 <0>         0.0851
     50 H15         6.3979   -0.8252    5.5842 H         1 <0>         0.0639
     51 H16         0.4173    1.7778   -0.1080 H         1 <0>         0.0584
     52 H17         7.1898   -2.9029    3.7355 H         1 <0>         0.0401
     53 H18         7.8931   -2.4532    5.3012 H         1 <0>         0.0440
     54 H19         6.5655   -3.6282    5.2294 H         1 <0>         0.0459
     55 H20         1.1081    0.6390   -2.4855 H         1 <0>         0.0456
     56 H21         1.6425    2.2512   -1.9725 H         1 <0>         0.0366
     57 H22         2.7156    0.8534   -1.7662 H         1 <0>         0.0474
     58 H23        -2.4032   -3.9506    2.8639 H         1 <0>         0.0800
     59 H24        -1.7473   -4.5245    4.4007 H         1 <0>         0.0681
     60 H25        -1.1204   -2.1894    5.0211 H         1 <0>         0.0740
     61 H26        -1.8263   -1.5854    3.5275 H         1 <0>         0.0631
     62 H27        -3.4379   -3.1690    5.6489 H         1 <0>         0.0970
     63 H28        -4.1962   -4.3179    4.5344 H         1 <0>         0.0725
     64 H29        -0.1638   -2.9774    2.1921 H         1 <0>         0.0839
     65 H30         3.2089   -3.5553    5.0190 H         1 <0>         0.4531
     66 H31        -5.7600   -0.5320    2.6119 H         1 <0>         0.4798
     67 H32        -6.4620   -1.6448    1.4797 H         1 <0>         0.4881
     68 H33        -4.8265   -4.6183    2.7616 H         1 <0>         0.4801
     69 H34        -5.9263   -4.0045    1.5608 H         1 <0>         0.4806
     70 H35        -4.2070   -1.3812    4.3054 H         1 <0>         0.4689
     71 H36         0.9382   -3.5340    4.9302 H         1 <0>         0.4505
     72 H37        -3.3805    0.1466    1.0133 H         1 <0>         0.4443
@<TRIPOS>BOND
     1    1    2 ar
     2    1    3 ar
     3    2    4 ar
     4    3    6 ar
     5    4    5 ar
     6    4   10 1
     7    5    6 ar
     8    5   24 1
     9    6   35 1
    10    7   15 1
    11    7   30 2
    12    7   34 1
    13    8   23 1
    14    8   25 am
    15    8   31 2
    16    9   26 1
    17    9   27 1
    18    9   28 1
    19   10   16 1
    20   11   13 1
    21   11   17 1
    22   12   15 1
    23   12   17 1
    24   13   25 1
    25   14   16 1
    26   14   24 1
    27   15   25 1
    28   16   18 1
    29   17   19 1
    30   20   21 1
    31   20   22 1
    32   21   23 1
    33   22   28 1
    34   23   29 1
    35   29   35 1
    36   32   35 2
    37   33   35 2
    38    1   36 1
    39    2   37 1
    40    3   38 1
    41   10   39 1
    42   10   40 1
    43   11   41 1
    44   11   42 1
    45   12   43 1
    46   12   44 1
    47   13   45 1
    48   13   46 1
    49   14   47 1
    50   14   48 1
    51   15   49 1
    52   16   50 1
    53   17   51 1
    54   18   52 1
    55   18   53 1
    56   18   54 1
    57   19   55 1
    58   19   56 1
    59   19   57 1
    60   20   58 1
    61   20   59 1
    62   21   60 1
    63   21   61 1
    64   22   62 1
    65   22   63 1
    66   23   64 1
    67   24   65 1
    68   26   66 1
    69   26   67 1
    70   27   68 1
    71   27   69 1
    72   28   70 1
    73   29   71 1
    74   34   72 1
@<TRIPOS>MOLECULE
1dwc_ligand_145
   72    74     0     0     0
SMALL
USER_CHARGES

mmff94s_NoEstat = 78.33
@<TRIPOS>ATOM
      1 C1         -1.5516   -4.4277    7.3298 C.ar      1 <0>        -0.1945
      2 C2         -2.3348   -5.5104    6.9352 C.ar      1 <0>        -0.0294
      3 C3         -1.5385   -3.2654    6.5644 C.ar      1 <0>        -0.0143
      4 C4         -3.1142   -5.4347    5.7720 C.ar      1 <0>        -0.1552
      5 C5         -3.0840   -4.2723    4.9761 C.ar      1 <0>         0.3076
      6 C6         -2.3015   -3.1877    5.3982 C.ar      1 <0>        -0.4908
      7 C7          3.5686   -3.4379    3.7704 C.2       1 <0>         0.5994
      8 C8          0.8654   -1.4427    3.2413 C.2       1 <0>         0.6462
      9 C9         -1.1012   -7.8073    4.3609 C.cat     1 <0>         0.6305
     10 C10        -3.9512   -6.6204    5.3554 C.3       1 <0>        -0.0319
     11 C11         3.4440   -0.0674    5.4719 C.3       1 <0>        -0.0918
     12 C12         3.1682   -2.4952    6.0163 C.3       1 <0>        -0.0841
     13 C13         2.9000   -0.3276    4.0730 C.3       1 <0>         0.0870
     14 C14        -4.5113   -5.3376    3.2753 C.3       1 <0>         0.2023
     15 C15         2.5392   -2.7371    4.6417 C.3       1 <0>         0.0778
     16 C16        -5.0831   -6.2018    4.4040 C.3       1 <0>        -0.0746
     17 C17         4.1435   -1.3104    6.0281 C.3       1 <0>        -0.0681
     18 C18        -5.8039   -7.4257    3.8454 C.3       1 <0>        -0.0944
     19 C19         4.6673   -1.0527    7.4396 C.3       1 <0>        -0.0918
     20 C20        -0.5404   -4.8511    2.0458 C.3       1 <0>        -0.1192
     21 C21         0.3004   -3.5693    2.0376 C.3       1 <0>        -0.0916
     22 C22        -0.3597   -5.6492    3.3311 C.3       1 <0>         0.1883
     23 C23        -0.0078   -2.6730    3.2260 C.3       1 <0>         0.1952
     24 N1         -3.8463   -4.1684    3.8190 N.pl3     1 <0>        -0.7670
     25 N2          2.0252   -1.5038    4.0223 N.am      1 <0>        -0.4509
     26 N3         -1.8613   -8.9717    4.3243 N.pl3     1 <0>        -0.8477
     27 N4         -0.2834   -7.5659    5.4595 N.pl3     1 <0>        -0.8633
     28 N5         -1.1428   -6.8764    3.3174 N.pl3     1 <0>        -0.7419
     29 N6         -1.3760   -2.1385    3.1042 N.pl3     1 <0>        -0.8860
     30 O1          4.3335   -2.8779    2.9993 O.2       1 <0>        -0.5199
     31 O2          0.5240   -0.4555    2.5844 O.2       1 <0>        -0.6131
     32 O3         -3.5960   -1.3232    4.1243 O.2       1 <0>        -0.6576
     33 O4         -1.4314   -0.7555    5.2719 O.2       1 <0>        -0.6482
     34 O5          3.5241   -4.7791    3.9616 O.3       1 <0>        -0.6303
     35 S1         -2.2397   -1.6774    4.4970 S.o2      1 <0>         1.5193
     36 H1         -0.9549   -4.4896    8.2356 H         1 <0>         0.1426
     37 H2         -2.3412   -6.4135    7.5409 H         1 <0>         0.1398
     38 H3         -0.9370   -2.4135    6.8653 H         1 <0>         0.1599
     39 H4         -3.2943   -7.3516    4.8675 H         1 <0>         0.0574
     40 H5         -4.3865   -7.1001    6.2407 H         1 <0>         0.0629
     41 H6          4.1435    0.7764    5.4419 H         1 <0>         0.0614
     42 H7          2.6191    0.2214    6.1357 H         1 <0>         0.0593
     43 H8          2.3618   -2.2928    6.7345 H         1 <0>         0.0841
     44 H9          3.6813   -3.3988    6.3690 H         1 <0>         0.0679
     45 H10         2.3679    0.5618    3.7197 H         1 <0>         0.0826
     46 H11         3.7232   -0.5081    3.3711 H         1 <0>         0.0383
     47 H12        -3.7986   -5.9137    2.6721 H         1 <0>         0.0556
     48 H13        -5.3138   -5.0110    2.6047 H         1 <0>         0.0415
     49 H14         1.7211   -3.4548    4.7590 H         1 <0>         0.0851
     50 H15        -5.8148   -5.6064    4.9667 H         1 <0>         0.0639
     51 H16         5.0063   -1.5479    5.3937 H         1 <0>         0.0584
     52 H17        -6.7464   -7.1341    3.3725 H         1 <0>         0.0401
     53 H18        -5.1841   -7.9286    3.0971 H         1 <0>         0.0440
     54 H19        -6.0259   -8.1390    4.6448 H         1 <0>         0.0459
     55 H20         4.2777   -1.8006    8.1367 H         1 <0>         0.0456
     56 H21         5.7602   -1.1000    7.4588 H         1 <0>         0.0366
     57 H22         4.3590   -0.0627    7.7891 H         1 <0>         0.0474
     58 H23        -1.5993   -4.5943    1.9218 H         1 <0>         0.0800
     59 H24        -0.2563   -5.4850    1.1980 H         1 <0>         0.0681
     60 H25         0.1357   -3.0322    1.0943 H         1 <0>         0.0740
     61 H26         1.3654   -3.8328    2.0643 H         1 <0>         0.0631
     62 H27        -0.6565   -5.0623    4.2062 H         1 <0>         0.0970
     63 H28         0.6914   -5.9295    3.4522 H         1 <0>         0.0725
     64 H29         0.1003   -3.1895    4.1787 H         1 <0>         0.0839
     65 H30        -3.7341   -3.3447    3.2409 H         1 <0>         0.4531
     66 H31        -2.4745   -9.1890    3.5432 H         1 <0>         0.4798
     67 H32        -1.8257   -9.6431    5.0878 H         1 <0>         0.4881
     68 H33         0.2854   -6.7248    5.5187 H         1 <0>         0.4801
     69 H34        -0.2317   -8.2251    6.2325 H         1 <0>         0.4806
     70 H35        -1.7526   -7.0814    2.5245 H         1 <0>         0.4689
     71 H36        -1.6042   -1.6955    2.2078 H         1 <0>         0.4505
     72 H37         4.1809   -5.2504    3.4059 H         1 <0>         0.4443
@<TRIPOS>BOND
     1    1    2 ar
     2    1    3 ar
     3    2    4 ar
     4    3    6 ar
     5    4    5 ar
     6    4   10 1
     7    5    6 ar
     8    5   24 1
     9    6   35 1
    10    7   15 1
    11    7   30 2
    12    7   34 1
    13    8   23 1
    14    8   25 am
    15    8   31 2
    16    9   26 1
    17    9   27 1
    18    9   28 1
    19   10   16 1
    20   11   13 1
    21   11   17 1
    22   12   15 1
    23   12   17 1
    24   13   25 1
    25   14   16 1
    26   14   24 1
    27   15   25 1
    28   16   18 1
    29   17   19 1
    30   20   21 1
    31   20   22 1
    32   21   23 1
    33   22   28 1
    34   23   29 1
    35   29   35 1
    36   32   35 2
    37   33   35 2
    38    1   36 1
    39    2   37 1
    40    3   38 1
    41   10   39 1
    42   10   40 1
    43   11   41 1
    44   11   42 1
    45   12   43 1
    46   12   44 1
    47   13   45 1
    48   13   46 1
    49   14   47 1
    50   14   48 1
    51   15   49 1
    52   16   50 1
    53   17   51 1
    54   18   52 1
    55   18   53 1
    56   18   54 1
    57   19   55 1
    58   19   56 1
    59   19   57 1
    60   20   58 1
    61   20   59 1
    62   21   60 1
    63   21   61 1
    64   22   62 1
    65   22   63 1
    66   23   64 1
    67   24   65 1
    68   26   66 1
    69   26   67 1
    70   27   68 1
    71   27   69 1
    72   28   70 1
    73   29   71 1
    74   34   72 1
@<TRIPOS>MOLECULE
1dwc_ligand_146
   72    74     0     0     0
SMALL
USER_CHARGES

mmff94s_NoEstat = 78.34
@<TRIPOS>ATOM
      1 C1          6.5406    1.4245   -2.2182 C.ar      1 <0>        -0.1945
      2 C2          6.6985    1.8302   -0.8947 C.ar      1 <0>        -0.0294
      3 C3          6.3835    0.0742   -2.5155 C.ar      1 <0>        -0.0143
      4 C4          6.7040    0.8848    0.1410 C.ar      1 <0>        -0.1552
      5 C5          6.5167   -0.4809   -0.1490 C.ar      1 <0>         0.3076
      6 C6          6.3751   -0.8712   -1.4886 C.ar      1 <0>        -0.4908
      7 C7          1.7669    0.8662    1.3280 C.2       1 <0>         0.5994
      8 C8          2.9466   -1.3973   -0.6457 C.2       1 <0>         0.6462
      9 C9         -1.2984   -4.0589   -1.3048 C.cat     1 <0>         0.6305
     10 C10         6.8681    1.3449    1.5697 C.3       1 <0>        -0.0319
     11 C11         2.6473    2.2406   -1.5596 C.3       1 <0>        -0.0918
     12 C12         0.4142    1.3633   -0.6780 C.3       1 <0>        -0.0841
     13 C13         2.8059    0.7734   -1.9437 C.3       1 <0>         0.0870
     14 C14         6.4788   -1.0425    2.2496 C.3       1 <0>         0.2023
     15 C15         1.2880    0.3092   -0.0025 C.3       1 <0>         0.0778
     16 C16         7.3211    0.2120    2.5051 C.3       1 <0>        -0.0746
     17 C17         1.2097    2.5950   -1.1463 C.3       1 <0>        -0.0681
     18 C18         8.8220   -0.0713    2.3751 C.3       1 <0>        -0.0944
     19 C19         0.4640    3.3062   -2.2768 C.3       1 <0>        -0.0918
     20 C20         1.1084   -2.3549   -2.7950 C.3       1 <0>        -0.1192
     21 C21         2.4114   -3.0756   -2.4306 C.3       1 <0>        -0.0916
     22 C22         0.0368   -3.3189   -3.2890 C.3       1 <0>         0.1883
     23 C23         3.4544   -2.1251   -1.8653 C.3       1 <0>         0.1952
     24 N1          6.5251   -1.4407    0.8554 N.pl3     1 <0>        -0.7670
     25 N2          2.3949   -0.1309   -0.8598 N.am      1 <0>        -0.4509
     26 N3         -1.6185   -5.0132   -0.3447 N.pl3     1 <0>        -0.8477
     27 N4         -1.9705   -2.8414   -1.3009 N.pl3     1 <0>        -0.8633
     28 N5         -0.3162   -4.2987   -2.2718 N.pl3     1 <0>        -0.7419
     29 N6          4.6097   -2.8934   -1.3678 N.pl3     1 <0>        -0.8860
     30 O1          1.0388    1.2682    2.2234 O.2       1 <0>        -0.5199
     31 O2          3.0377   -1.9312    0.4627 O.2       1 <0>        -0.6131
     32 O3          6.1698   -2.6265   -3.3996 O.2       1 <0>        -0.6576
     33 O4          7.1388   -3.3235   -1.1861 O.2       1 <0>        -0.6482
     34 O5          3.1209    0.8607    1.3898 O.3       1 <0>        -0.6303
     35 S1          6.1736   -2.5573   -1.9508 S.o2      1 <0>         1.5193
     36 H1          6.5435    2.1609   -3.0173 H         1 <0>         0.1426
     37 H2          6.8235    2.8872   -0.6719 H         1 <0>         0.1398
     38 H3          6.2656   -0.2543   -3.5434 H         1 <0>         0.1599
     39 H4          7.5861    2.1725    1.6211 H         1 <0>         0.0574
     40 H5          5.8975    1.7275    1.9104 H         1 <0>         0.0629
     41 H6          3.3139    2.4482   -0.7119 H         1 <0>         0.0614
     42 H7          2.9866    2.8831   -2.3805 H         1 <0>         0.0593
     43 H8         -0.0763    0.8986   -1.5445 H         1 <0>         0.0841
     44 H9         -0.3910    1.6884   -0.0067 H         1 <0>         0.0679
     45 H10         2.1887    0.5331   -2.8174 H         1 <0>         0.0826
     46 H11         3.8474    0.5746   -2.2145 H         1 <0>         0.0383
     47 H12         6.8300   -1.8717    2.8739 H         1 <0>         0.0556
     48 H13         5.4356   -0.8502    2.5290 H         1 <0>         0.0415
     49 H14         0.6719   -0.5636    0.2451 H         1 <0>         0.0851
     50 H15         7.1566    0.5367    3.5400 H         1 <0>         0.0639
     51 H16         1.2711    3.3100   -0.3159 H         1 <0>         0.0584
     52 H17         9.2504    0.4995    1.5459 H         1 <0>         0.0401
     53 H18         9.3470    0.2082    3.2934 H         1 <0>         0.0440
     54 H19         8.9975   -1.1349    2.1879 H         1 <0>         0.0459
     55 H20         0.7912    4.3471   -2.3578 H         1 <0>         0.0456
     56 H21         0.6528    2.8103   -3.2336 H         1 <0>         0.0366
     57 H22        -0.6142    3.2977   -2.0910 H         1 <0>         0.0474
     58 H23         0.7341   -1.8112   -1.9193 H         1 <0>         0.0800
     59 H24         1.3022   -1.6154   -3.5806 H         1 <0>         0.0681
     60 H25         2.8001   -3.5947   -3.3165 H         1 <0>         0.0740
     61 H26         2.2014   -3.8505   -1.6824 H         1 <0>         0.0631
     62 H27         0.3698   -3.8564   -4.1826 H         1 <0>         0.0970
     63 H28        -0.8729   -2.7667   -3.5456 H         1 <0>         0.0725
     64 H29         3.7902   -1.3903   -2.5956 H         1 <0>         0.0839
     65 H30         6.3115   -2.3985    0.6051 H         1 <0>         0.4531
     66 H31        -1.1552   -5.9173   -0.3101 H         1 <0>         0.4798
     67 H32        -2.3346   -4.8309    0.3547 H         1 <0>         0.4881
     68 H33        -1.7614   -2.1216   -1.9884 H         1 <0>         0.4801
     69 H34        -2.6884   -2.6385   -0.6095 H         1 <0>         0.4806
     70 H35         0.1598   -5.2017   -2.2490 H         1 <0>         0.4689
     71 H36         4.5044   -3.3037   -0.4338 H         1 <0>         0.4505
     72 H37         3.4503    1.2188    2.2416 H         1 <0>         0.4443
@<TRIPOS>BOND
     1    1    2 ar
     2    1    3 ar
     3    2    4 ar
     4    3    6 ar
     5    4    5 ar
     6    4   10 1
     7    5    6 ar
     8    5   24 1
     9    6   35 1
    10    7   15 1
    11    7   30 2
    12    7   34 1
    13    8   23 1
    14    8   25 am
    15    8   31 2
    16    9   26 1
    17    9   27 1
    18    9   28 1
    19   10   16 1
    20   11   13 1
    21   11   17 1
    22   12   15 1
    23   12   17 1
    24   13   25 1
    25   14   16 1
    26   14   24 1
    27   15   25 1
    28   16   18 1
    29   17   19 1
    30   20   21 1
    31   20   22 1
    32   21   23 1
    33   22   28 1
    34   23   29 1
    35   29   35 1
    36   32   35 2
    37   33   35 2
    38    1   36 1
    39    2   37 1
    40    3   38 1
    41   10   39 1
    42   10   40 1
    43   11   41 1
    44   11   42 1
    45   12   43 1
    46   12   44 1
    47   13   45 1
    48   13   46 1
    49   14   47 1
    50   14   48 1
    51   15   49 1
    52   16   50 1
    53   17   51 1
    54   18   52 1
    55   18   53 1
    56   18   54 1
    57   19   55 1
    58   19   56 1
    59   19   57 1
    60   20   58 1
    61   20   59 1
    62   21   60 1
    63   21   61 1
    64   22   62 1
    65   22   63 1
    66   23   64 1
    67   24   65 1
    68   26   66 1
    69   26   67 1
    70   27   68 1
    71   27   69 1
    72   28   70 1
    73   29   71 1
    74   34   72 1
@<TRIPOS>MOLECULE
1dwc_ligand_147
   72    74     0     0     0
SMALL
USER_CHARGES

mmff94s_NoEstat = 78.39
@<TRIPOS>ATOM
      1 C1         -1.4167   -4.0969    7.4880 C.ar      1 <0>        -0.1945
      2 C2         -1.3782   -2.9116    8.2194 C.ar      1 <0>        -0.0294
      3 C3         -1.8193   -4.0774    6.1560 C.ar      1 <0>        -0.0143
      4 C4         -1.7393   -1.6967    7.6196 C.ar      1 <0>        -0.1552
      5 C5         -2.1757   -1.6726    6.2800 C.ar      1 <0>         0.3076
      6 C6         -2.1929   -2.8737    5.5561 C.ar      1 <0>        -0.4908
      7 C7          3.6572    0.2351    4.2205 C.2       1 <0>         0.5994
      8 C8          0.8654   -1.4427    3.2413 C.2       1 <0>         0.6462
      9 C9         -1.9037   -4.9458   -1.0028 C.cat     1 <0>         0.6305
     10 C10        -1.6986   -0.4229    8.4294 C.3       1 <0>        -0.0319
     11 C11         3.8985   -3.4862    3.6166 C.3       1 <0>        -0.0918
     12 C12         4.5525   -1.3270    2.5319 C.3       1 <0>        -0.0841
     13 C13         2.6738   -2.8056    4.2145 C.3       1 <0>         0.0870
     14 C14        -2.7014    0.7278    6.4404 C.3       1 <0>         0.2023
     15 C15         3.2751   -0.6689    3.0601 C.3       1 <0>         0.0778
     16 C16        -1.6211    0.8160    7.5233 C.3       1 <0>        -0.0746
     17 C17         5.0385   -2.4845    3.4144 C.3       1 <0>        -0.0681
     18 C18        -1.7676    2.0967    8.3404 C.3       1 <0>        -0.0944
     19 C19         6.2563   -3.1661    2.7936 C.3       1 <0>        -0.0918
     20 C20         0.0249   -2.8727    0.7002 C.3       1 <0>        -0.1192
     21 C21         0.3004   -3.5693    2.0376 C.3       1 <0>        -0.0916
     22 C22         0.2602   -3.7963   -0.4886 C.3       1 <0>         0.1883
     23 C23        -0.0078   -2.6730    3.2260 C.3       1 <0>         0.1952
     24 N1         -2.5388   -0.4838    5.6592 N.pl3     1 <0>        -0.7670
     25 N2          2.2374   -1.6470    3.4280 N.am      1 <0>        -0.4509
     26 N3         -2.7225   -6.0692   -0.9554 N.pl3     1 <0>        -0.8477
     27 N4         -2.3754   -3.7883   -1.6126 N.pl3     1 <0>        -0.8633
     28 N5         -0.6182   -4.9567   -0.4508 N.pl3     1 <0>        -0.7419
     29 N6         -1.3760   -2.1385    3.1042 N.pl3     1 <0>        -0.8860
     30 O1          3.6315   -0.0869    5.3991 O.2       1 <0>        -0.5199
     31 O2          0.3435   -0.3338    3.0981 O.2       1 <0>        -0.6131
     32 O3         -2.6902   -4.3257    3.4539 O.2       1 <0>        -0.6576
     33 O4         -3.8691   -2.1223    3.7357 O.2       1 <0>        -0.6482
     34 O5          4.0314    1.4581    3.7715 O.3       1 <0>        -0.6303
     35 S1         -2.6746   -2.9347    3.8647 S.o2      1 <0>         1.5193
     36 H1         -1.1294   -5.0344    7.9561 H         1 <0>         0.1426
     37 H2         -1.0595   -2.9358    9.2588 H         1 <0>         0.1398
     38 H3         -1.8474   -4.9936    5.5747 H         1 <0>         0.1599
     39 H4         -2.6003   -0.3825    9.0536 H         1 <0>         0.0574
     40 H5         -0.8290   -0.4326    9.0980 H         1 <0>         0.0629
     41 H6          4.2244   -4.2993    4.2761 H         1 <0>         0.0614
     42 H7          3.6296   -3.9402    2.6542 H         1 <0>         0.0593
     43 H8          4.3500   -1.7152    1.5243 H         1 <0>         0.0841
     44 H9          5.3525   -0.5834    2.4253 H         1 <0>         0.0679
     45 H10         1.8623   -3.5349    4.3059 H         1 <0>         0.0826
     46 H11         2.8945   -2.4435    5.2260 H         1 <0>         0.0383
     47 H12        -3.7013    0.7380    6.8917 H         1 <0>         0.0556
     48 H13        -2.6389    1.5936    5.7717 H         1 <0>         0.0415
     49 H14         2.8873    0.0006    2.2858 H         1 <0>         0.0851
     50 H15        -0.6364    0.8362    7.0371 H         1 <0>         0.0639
     51 H16         5.3432   -2.0892    4.3913 H         1 <0>         0.0584
     52 H17        -1.4722    2.9671    7.7470 H         1 <0>         0.0401
     53 H18        -2.8055    2.2330    8.6588 H         1 <0>         0.0440
     54 H19        -1.1357    2.0577    9.2327 H         1 <0>         0.0459
     55 H20         6.5585   -2.6519    1.8763 H         1 <0>         0.0456
     56 H21         7.1004   -3.1536    3.4896 H         1 <0>         0.0366
     57 H22         6.0293   -4.2073    2.5458 H         1 <0>         0.0474
     58 H23        -1.0105   -2.5120    0.6824 H         1 <0>         0.0800
     59 H24         0.6776   -1.9980    0.5976 H         1 <0>         0.0681
     60 H25         1.3460   -3.9033    2.0652 H         1 <0>         0.0740
     61 H26        -0.3175   -4.4733    2.1109 H         1 <0>         0.0631
     62 H27         1.2957   -4.1503   -0.5157 H         1 <0>         0.0970
     63 H28         0.0608   -3.2615   -1.4226 H         1 <0>         0.0725
     64 H29         0.1003   -3.1895    4.1787 H         1 <0>         0.0839
     65 H30        -2.9169   -0.5266    4.7209 H         1 <0>         0.4531
     66 H31        -2.4195   -6.9373   -0.5220 H         1 <0>         0.4798
     67 H32        -3.6559   -6.0529   -1.3599 H         1 <0>         0.4881
     68 H33        -1.8031   -2.9491   -1.6649 H         1 <0>         0.4801
     69 H34        -3.3061   -3.7503   -2.0214 H         1 <0>         0.4806
     70 H35        -0.2999   -5.8210   -0.0100 H         1 <0>         0.4689
     71 H36        -1.4476   -1.1318    2.9219 H         1 <0>         0.4505
     72 H37         4.2804    2.0579    4.5068 H         1 <0>         0.4443
@<TRIPOS>BOND
     1    1    2 ar
     2    1    3 ar
     3    2    4 ar
     4    3    6 ar
     5    4    5 ar
     6    4   10 1
     7    5    6 ar
     8    5   24 1
     9    6   35 1
    10    7   15 1
    11    7   30 2
    12    7   34 1
    13    8   23 1
    14    8   25 am
    15    8   31 2
    16    9   26 1
    17    9   27 1
    18    9   28 1
    19   10   16 1
    20   11   13 1
    21   11   17 1
    22   12   15 1
    23   12   17 1
    24   13   25 1
    25   14   16 1
    26   14   24 1
    27   15   25 1
    28   16   18 1
    29   17   19 1
    30   20   21 1
    31   20   22 1
    32   21   23 1
    33   22   28 1
    34   23   29 1
    35   29   35 1
    36   32   35 2
    37   33   35 2
    38    1   36 1
    39    2   37 1
    40    3   38 1
    41   10   39 1
    42   10   40 1
    43   11   41 1
    44   11   42 1
    45   12   43 1
    46   12   44 1
    47   13   45 1
    48   13   46 1
    49   14   47 1
    50   14   48 1
    51   15   49 1
    52   16   50 1
    53   17   51 1
    54   18   52 1
    55   18   53 1
    56   18   54 1
    57   19   55 1
    58   19   56 1
    59   19   57 1
    60   20   58 1
    61   20   59 1
    62   21   60 1
    63   21   61 1
    64   22   62 1
    65   22   63 1
    66   23   64 1
    67   24   65 1
    68   26   66 1
    69   26   67 1
    70   27   68 1
    71   27   69 1
    72   28   70 1
    73   29   71 1
    74   34   72 1
@<TRIPOS>MOLECULE
1dwc_ligand_148
   72    74     0     0     0
SMALL
USER_CHARGES

mmff94s_NoEstat = 78.42
@<TRIPOS>ATOM
      1 C1         -3.3475   -6.3503    1.8791 C.ar      1 <0>        -0.1945
      2 C2         -3.9958   -5.9344    0.7180 C.ar      1 <0>        -0.0294
      3 C3         -2.9512   -5.4113    2.8268 C.ar      1 <0>        -0.0143
      4 C4         -4.2554   -4.5738    0.4999 C.ar      1 <0>        -0.1552
      5 C5         -3.8316   -3.6142    1.4408 C.ar      1 <0>         0.3076
      6 C6         -3.1944   -4.0540    2.6102 C.ar      1 <0>        -0.4908
      7 C7          3.6572    0.2351    4.2205 C.2       1 <0>         0.5994
      8 C8          0.8654   -1.4427    3.2413 C.2       1 <0>         0.6462
      9 C9         -0.6326   -5.9229   -1.4626 C.cat     1 <0>         0.6305
     10 C10        -4.9524   -4.1403   -0.7675 C.3       1 <0>        -0.0319
     11 C11         3.8985   -3.4862    3.6166 C.3       1 <0>        -0.0918
     12 C12         4.5525   -1.3270    2.5319 C.3       1 <0>        -0.0841
     13 C13         2.6738   -2.8056    4.2145 C.3       1 <0>         0.0870
     14 C14        -4.5641   -1.7769   -0.0261 C.3       1 <0>         0.2023
     15 C15         3.2751   -0.6689    3.0601 C.3       1 <0>         0.0778
     16 C16        -5.5921   -2.7519   -0.6095 C.3       1 <0>        -0.0746
     17 C17         5.0385   -2.4845    3.4144 C.3       1 <0>        -0.0681
     18 C18        -6.1301   -2.2464   -1.9453 C.3       1 <0>        -0.0944
     19 C19         6.2563   -3.1661    2.7936 C.3       1 <0>        -0.0918
     20 C20         0.0249   -2.8727    0.7002 C.3       1 <0>        -0.1192
     21 C21         0.3004   -3.5693    2.0376 C.3       1 <0>        -0.0916
     22 C22         0.2602   -3.7963   -0.4886 C.3       1 <0>         0.1883
     23 C23        -0.0078   -2.6730    3.2260 C.3       1 <0>         0.1952
     24 N1         -4.0757   -2.2595    1.2518 N.pl3     1 <0>        -0.7670
     25 N2          2.2374   -1.6470    3.4280 N.am      1 <0>        -0.4509
     26 N3         -1.4804   -7.0239   -1.4014 N.pl3     1 <0>        -0.8477
     27 N4          0.2178   -5.7819   -2.5539 N.pl3     1 <0>        -0.8633
     28 N5         -0.6182   -4.9567   -0.4508 N.pl3     1 <0>        -0.7419
     29 N6         -1.3760   -2.1385    3.1042 N.pl3     1 <0>        -0.8860
     30 O1          3.6315   -0.0869    5.3991 O.2       1 <0>        -0.5199
     31 O2          0.3435   -0.3338    3.0981 O.2       1 <0>        -0.6131
     32 O3         -3.7495   -1.9880    4.0928 O.2       1 <0>        -0.6576
     33 O4         -2.1627   -3.7355    4.9602 O.2       1 <0>        -0.6482
     34 O5          4.0314    1.4581    3.7715 O.3       1 <0>        -0.6303
     35 S1         -2.6746   -2.9347    3.8647 S.o2      1 <0>         1.5193
     36 H1         -3.1550   -7.4065    2.0458 H         1 <0>         0.1426
     37 H2         -4.3045   -6.6753   -0.0157 H         1 <0>         0.1398
     38 H3         -2.4509   -5.7242    3.7377 H         1 <0>         0.1599
     39 H4         -4.2148   -4.1296   -1.5800 H         1 <0>         0.0574
     40 H5         -5.7315   -4.8656   -1.0323 H         1 <0>         0.0629
     41 H6          4.2244   -4.2993    4.2761 H         1 <0>         0.0614
     42 H7          3.6296   -3.9402    2.6542 H         1 <0>         0.0593
     43 H8          4.3500   -1.7152    1.5243 H         1 <0>         0.0841
     44 H9          5.3525   -0.5834    2.4253 H         1 <0>         0.0679
     45 H10         1.8623   -3.5349    4.3059 H         1 <0>         0.0826
     46 H11         2.8945   -2.4435    5.2260 H         1 <0>         0.0383
     47 H12        -3.7191   -1.6505   -0.7142 H         1 <0>         0.0556
     48 H13        -5.0170   -0.7893    0.1158 H         1 <0>         0.0415
     49 H14         2.8873    0.0006    2.2858 H         1 <0>         0.0851
     50 H15        -6.4375   -2.8304    0.0874 H         1 <0>         0.0639
     51 H16         5.3432   -2.0892    4.3913 H         1 <0>         0.0584
     52 H17        -6.7909   -1.3877   -1.7933 H         1 <0>         0.0401
     53 H18        -5.3086   -1.9377   -2.5987 H         1 <0>         0.0440
     54 H19        -6.6976   -3.0320   -2.4531 H         1 <0>         0.0459
     55 H20         6.5585   -2.6519    1.8763 H         1 <0>         0.0456
     56 H21         7.1004   -3.1536    3.4896 H         1 <0>         0.0366
     57 H22         6.0293   -4.2073    2.5458 H         1 <0>         0.0474
     58 H23        -1.0105   -2.5120    0.6824 H         1 <0>         0.0800
     59 H24         0.6776   -1.9980    0.5976 H         1 <0>         0.0681
     60 H25         1.3460   -3.9033    2.0652 H         1 <0>         0.0740
     61 H26        -0.3175   -4.4733    2.1109 H         1 <0>         0.0631
     62 H27         1.2957   -4.1503   -0.5157 H         1 <0>         0.0970
     63 H28         0.0608   -3.2615   -1.4226 H         1 <0>         0.0725
     64 H29         0.1003   -3.1895    4.1787 H         1 <0>         0.0839
     65 H30        -3.6865   -1.6028    1.9171 H         1 <0>         0.4531
     66 H31        -2.1173   -7.1693   -0.6226 H         1 <0>         0.4798
     67 H32        -1.4841   -7.7223   -2.1412 H         1 <0>         0.4881
     68 H33         0.8505   -4.9892   -2.6303 H         1 <0>         0.4801
     69 H34         0.2286   -6.4677   -3.3050 H         1 <0>         0.4806
     70 H35        -1.2539   -5.0876    0.3375 H         1 <0>         0.4689
     71 H36        -1.4476   -1.1318    2.9219 H         1 <0>         0.4505
     72 H37         4.2804    2.0579    4.5068 H         1 <0>         0.4443
@<TRIPOS>BOND
     1    1    2 ar
     2    1    3 ar
     3    2    4 ar
     4    3    6 ar
     5    4    5 ar
     6    4   10 1
     7    5    6 ar
     8    5   24 1
     9    6   35 1
    10    7   15 1
    11    7   30 2
    12    7   34 1
    13    8   23 1
    14    8   25 am
    15    8   31 2
    16    9   26 1
    17    9   27 1
    18    9   28 1
    19   10   16 1
    20   11   13 1
    21   11   17 1
    22   12   15 1
    23   12   17 1
    24   13   25 1
    25   14   16 1
    26   14   24 1
    27   15   25 1
    28   16   18 1
    29   17   19 1
    30   20   21 1
    31   20   22 1
    32   21   23 1
    33   22   28 1
    34   23   29 1
    35   29   35 1
    36   32   35 2
    37   33   35 2
    38    1   36 1
    39    2   37 1
    40    3   38 1
    41   10   39 1
    42   10   40 1
    43   11   41 1
    44   11   42 1
    45   12   43 1
    46   12   44 1
    47   13   45 1
    48   13   46 1
    49   14   47 1
    50   14   48 1
    51   15   49 1
    52   16   50 1
    53   17   51 1
    54   18   52 1
    55   18   53 1
    56   18   54 1
    57   19   55 1
    58   19   56 1
    59   19   57 1
    60   20   58 1
    61   20   59 1
    62   21   60 1
    63   21   61 1
    64   22   62 1
    65   22   63 1
    66   23   64 1
    67   24   65 1
    68   26   66 1
    69   26   67 1
    70   27   68 1
    71   27   69 1
    72   28   70 1
    73   29   71 1
    74   34   72 1
@<TRIPOS>MOLECULE
1dwc_ligand_149
   72    74     0     0     0
SMALL
USER_CHARGES

mmff94s_NoEstat = 78.42
@<TRIPOS>ATOM
      1 C1         -3.3475   -6.3503    1.8791 C.ar      1 <0>        -0.1945
      2 C2         -3.9958   -5.9344    0.7180 C.ar      1 <0>        -0.0294
      3 C3         -2.9512   -5.4113    2.8268 C.ar      1 <0>        -0.0143
      4 C4         -4.2554   -4.5738    0.4999 C.ar      1 <0>        -0.1552
      5 C5         -3.8316   -3.6142    1.4408 C.ar      1 <0>         0.3076
      6 C6         -3.1944   -4.0540    2.6102 C.ar      1 <0>        -0.4908
      7 C7          3.7233   -2.4449    4.7893 C.2       1 <0>         0.5994
      8 C8          0.8654   -1.4427    3.2413 C.2       1 <0>         0.6462
      9 C9          4.0141   -6.1014   -0.2251 C.cat     1 <0>         0.6305
     10 C10        -4.9524   -4.1403   -0.7675 C.3       1 <0>        -0.0319
     11 C11         1.7658    0.4222    6.2790 C.3       1 <0>        -0.0918
     12 C12         2.2228   -2.0030    6.6989 C.3       1 <0>        -0.0841
     13 C13         1.9003    0.1799    4.7810 C.3       1 <0>         0.0870
     14 C14        -4.5641   -1.7769   -0.0261 C.3       1 <0>         0.2023
     15 C15         2.2690   -2.2605    5.1905 C.3       1 <0>         0.0778
     16 C16        -5.5921   -2.7519   -0.6095 C.3       1 <0>        -0.0746
     17 C17         2.6202   -0.5689    7.0736 C.3       1 <0>        -0.0681
     18 C18        -6.1301   -2.2464   -1.9453 C.3       1 <0>        -0.0944
     19 C19         2.4647   -0.3375    8.5754 C.3       1 <0>        -0.0918
     20 C20         1.7689   -4.0083    2.0091 C.3       1 <0>        -0.1192
     21 C21         0.3004   -3.5693    2.0376 C.3       1 <0>        -0.0916
     22 C22         2.0958   -4.8429    0.7769 C.3       1 <0>         0.1883
     23 C23        -0.0078   -2.6730    3.2260 C.3       1 <0>         0.1952
     24 N1         -4.0757   -2.2595    1.2518 N.pl3     1 <0>        -0.7670
     25 N2          1.5999   -1.2067    4.4091 N.am      1 <0>        -0.4509
     26 N3          5.3470   -6.4988   -0.2068 N.pl3     1 <0>        -0.8477
     27 N4          3.1913   -6.5359   -1.2586 N.pl3     1 <0>        -0.8633
     28 N5          3.4859   -5.2755    0.7729 N.pl3     1 <0>        -0.7419
     29 N6         -1.3760   -2.1385    3.1042 N.pl3     1 <0>        -0.8860
     30 O1          4.4523   -1.5599    4.3665 O.2       1 <0>        -0.5199
     31 O2          0.8891   -0.7105    2.2483 O.2       1 <0>        -0.6131
     32 O3         -3.7495   -1.9880    4.0928 O.2       1 <0>        -0.6576
     33 O4         -2.1627   -3.7355    4.9602 O.2       1 <0>        -0.6482
     34 O5          4.1079   -3.7331    4.9617 O.3       1 <0>        -0.6303
     35 S1         -2.6746   -2.9347    3.8647 S.o2      1 <0>         1.5193
     36 H1         -3.1550   -7.4065    2.0458 H         1 <0>         0.1426
     37 H2         -4.3045   -6.6753   -0.0157 H         1 <0>         0.1398
     38 H3         -2.4509   -5.7242    3.7377 H         1 <0>         0.1599
     39 H4         -4.2148   -4.1296   -1.5800 H         1 <0>         0.0574
     40 H5         -5.7315   -4.8656   -1.0323 H         1 <0>         0.0629
     41 H6          2.0669    1.4503    6.5123 H         1 <0>         0.0614
     42 H7          0.7128    0.3207    6.5714 H         1 <0>         0.0593
     43 H8          1.1978   -2.1858    7.0494 H         1 <0>         0.0841
     44 H9          2.8666   -2.7151    7.2306 H         1 <0>         0.0679
     45 H10         1.2456    0.8722    4.2416 H         1 <0>         0.0826
     46 H11         2.9258    0.3867    4.4518 H         1 <0>         0.0383
     47 H12        -3.7191   -1.6505   -0.7142 H         1 <0>         0.0556
     48 H13        -5.0170   -0.7893    0.1158 H         1 <0>         0.0415
     49 H14         1.7884   -3.2235    4.9909 H         1 <0>         0.0851
     50 H15        -6.4375   -2.8304    0.0874 H         1 <0>         0.0639
     51 H16         3.6763   -0.4106    6.8224 H         1 <0>         0.0584
     52 H17        -6.7909   -1.3877   -1.7933 H         1 <0>         0.0401
     53 H18        -5.3086   -1.9377   -2.5987 H         1 <0>         0.0440
     54 H19        -6.6976   -3.0320   -2.4531 H         1 <0>         0.0459
     55 H20         2.1532   -1.2591    9.0761 H         1 <0>         0.0456
     56 H21         3.4121   -0.0103    9.0142 H         1 <0>         0.0366
     57 H22         1.7112    0.4316    8.7697 H         1 <0>         0.0474
     58 H23         2.4156   -3.1229    2.0318 H         1 <0>         0.0800
     59 H24         1.9949   -4.6013    2.9028 H         1 <0>         0.0681
     60 H25        -0.3448   -4.4577    2.0448 H         1 <0>         0.0740
     61 H26         0.0666   -3.0218    1.1158 H         1 <0>         0.0631
     62 H27         1.9087   -4.2801   -0.1431 H         1 <0>         0.0970
     63 H28         1.4704   -5.7411    0.7573 H         1 <0>         0.0725
     64 H29         0.1003   -3.1895    4.1787 H         1 <0>         0.0839
     65 H30        -3.6865   -1.6028    1.9171 H         1 <0>         0.4531
     66 H31         5.9857   -6.2045    0.5272 H         1 <0>         0.4798
     67 H32         5.7233   -7.0992   -0.9370 H         1 <0>         0.4881
     68 H33         2.2121   -6.2643   -1.3027 H         1 <0>         0.4801
     69 H34         3.5471   -7.1379   -1.9973 H         1 <0>         0.4806
     70 H35         4.1145   -4.9729    1.5185 H         1 <0>         0.4689
     71 H36        -1.4476   -1.1318    2.9219 H         1 <0>         0.4505
     72 H37         5.0446   -3.8732    4.7061 H         1 <0>         0.4443
@<TRIPOS>BOND
     1    1    2 ar
     2    1    3 ar
     3    2    4 ar
     4    3    6 ar
     5    4    5 ar
     6    4   10 1
     7    5    6 ar
     8    5   24 1
     9    6   35 1
    10    7   15 1
    11    7   30 2
    12    7   34 1
    13    8   23 1
    14    8   25 am
    15    8   31 2
    16    9   26 1
    17    9   27 1
    18    9   28 1
    19   10   16 1
    20   11   13 1
    21   11   17 1
    22   12   15 1
    23   12   17 1
    24   13   25 1
    25   14   16 1
    26   14   24 1
    27   15   25 1
    28   16   18 1
    29   17   19 1
    30   20   21 1
    31   20   22 1
    32   21   23 1
    33   22   28 1
    34   23   29 1
    35   29   35 1
    36   32   35 2
    37   33   35 2
    38    1   36 1
    39    2   37 1
    40    3   38 1
    41   10   39 1
    42   10   40 1
    43   11   41 1
    44   11   42 1
    45   12   43 1
    46   12   44 1
    47   13   45 1
    48   13   46 1
    49   14   47 1
    50   14   48 1
    51   15   49 1
    52   16   50 1
    53   17   51 1
    54   18   52 1
    55   18   53 1
    56   18   54 1
    57   19   55 1
    58   19   56 1
    59   19   57 1
    60   20   58 1
    61   20   59 1
    62   21   60 1
    63   21   61 1
    64   22   62 1
    65   22   63 1
    66   23   64 1
    67   24   65 1
    68   26   66 1
    69   26   67 1
    70   27   68 1
    71   27   69 1
    72   28   70 1
    73   29   71 1
    74   34   72 1
@<TRIPOS>MOLECULE
1dwc_ligand_150
   72    74     0     0     0
SMALL
USER_CHARGES

mmff94s_NoEstat = 78.43
@<TRIPOS>ATOM
      1 C1          4.1820   -5.5545   -5.6336 C.ar      1 <0>        -0.1945
      2 C2          3.9749   -4.9047   -6.8487 C.ar      1 <0>        -0.0294
      3 C3          3.4498   -5.1777   -4.5117 C.ar      1 <0>        -0.0143
      4 C4          3.0290   -3.8745   -6.9491 C.ar      1 <0>        -0.1552
      5 C5          2.3044   -3.4675   -5.8112 C.ar      1 <0>         0.3076
      6 C6          2.5161   -4.1440   -4.6011 C.ar      1 <0>        -0.4908
      7 C7          1.8102   -1.5505    2.3702 C.2       1 <0>         0.5994
      8 C8          2.9466   -1.3973   -0.6457 C.2       1 <0>         0.6462
      9 C9          4.9528    0.1036   -6.2734 C.cat     1 <0>         0.6305
     10 C10         2.8229   -3.1764   -8.2721 C.3       1 <0>        -0.0319
     11 C11         4.4920   -3.4807    2.0801 C.3       1 <0>        -0.0918
     12 C12         4.1798   -1.0721    2.8769 C.3       1 <0>        -0.0841
     13 C13         4.5658   -2.7774    0.7291 C.3       1 <0>         0.0870
     14 C14         1.2630   -1.6248   -7.0698 C.3       1 <0>         0.2023
     15 C15         3.1125   -1.0286    1.7861 C.3       1 <0>         0.0778
     16 C16         1.4568   -2.4750   -8.3297 C.3       1 <0>        -0.0746
     17 C17         4.5869   -2.5050    3.2643 C.3       1 <0>        -0.0681
     18 C18         1.3365   -1.6224   -9.5899 C.3       1 <0>        -0.0944
     19 C19         5.9882   -2.5079    3.8779 C.3       1 <0>        -0.0918
     20 C20         4.0666    0.0061   -3.0917 C.3       1 <0>        -0.1192
     21 C21         4.5564   -1.3488   -2.5679 C.3       1 <0>        -0.0916
     22 C22         5.1498    0.7503   -3.8628 C.3       1 <0>         0.1883
     23 C23         3.4544   -2.1251   -1.8653 C.3       1 <0>         0.1952
     24 N1          1.3604   -2.4504   -5.8809 N.pl3     1 <0>        -0.7670
     25 N2          3.5192   -1.7560    0.5781 N.am      1 <0>        -0.4509
     26 N3          5.3941   -0.6210   -7.3756 N.pl3     1 <0>        -0.8477
     27 N4          3.8552    0.9464   -6.4114 N.pl3     1 <0>        -0.8633
     28 N5          5.5893    0.0019   -5.0317 N.pl3     1 <0>        -0.7419
     29 N6          2.2741   -2.2179   -2.7432 N.pl3     1 <0>        -0.8860
     30 O1          1.2492   -1.0925    3.3546 O.2       1 <0>        -0.5199
     31 O2          2.0685   -0.5400   -0.7710 O.2       1 <0>        -0.6131
     32 O3          0.2257   -3.5846   -3.4982 O.2       1 <0>        -0.6576
     33 O4          2.0133   -4.7010   -2.1261 O.2       1 <0>        -0.6482
     34 O5          1.3501   -2.6026    1.6500 O.3       1 <0>        -0.6303
     35 S1          1.6226   -3.7401   -3.1398 S.o2      1 <0>         1.5193
     36 H1          4.9114   -6.3567   -5.5633 H         1 <0>         0.1426
     37 H2          4.5493   -5.2078   -7.7208 H         1 <0>         0.1398
     38 H3          3.5983   -5.6808   -3.5615 H         1 <0>         0.1599
     39 H4          3.6316   -2.4467   -8.4063 H         1 <0>         0.0574
     40 H5          2.8878   -3.9023   -9.0919 H         1 <0>         0.0629
     41 H6          3.5311   -4.0088    2.1410 H         1 <0>         0.0614
     42 H7          5.2694   -4.2509    2.1463 H         1 <0>         0.0593
     43 H8          5.0641   -0.5305    2.5137 H         1 <0>         0.0841
     44 H9          3.8399   -0.5392    3.7741 H         1 <0>         0.0679
     45 H10         5.5312   -2.2723    0.6079 H         1 <0>         0.0826
     46 H11         4.4795   -3.5150   -0.0747 H         1 <0>         0.0383
     47 H12         2.0165   -0.8288   -7.0225 H         1 <0>         0.0556
     48 H13         0.2804   -1.1403   -7.0873 H         1 <0>         0.0415
     49 H14         2.9188    0.0160    1.5141 H         1 <0>         0.0851
     50 H15         0.6689   -3.2396   -8.3627 H         1 <0>         0.0639
     51 H16         3.9047   -2.8651    4.0450 H         1 <0>         0.0584
     52 H17         0.2966   -1.3248   -9.7548 H         1 <0>         0.0401
     53 H18         1.9441   -0.7168   -9.5009 H         1 <0>         0.0440
     54 H19         1.6777   -2.1815  -10.4662 H         1 <0>         0.0459
     55 H20         6.0310   -3.1862    4.7353 H         1 <0>         0.0456
     56 H21         6.7293   -2.8350    3.1425 H         1 <0>         0.0366
     57 H22         6.2606   -1.5045    4.2187 H         1 <0>         0.0474
     58 H23         3.1961   -0.1462   -3.7411 H         1 <0>         0.0800
     59 H24         3.7428    0.6319   -2.2522 H         1 <0>         0.0681
     60 H25         5.4094   -1.1917   -1.8946 H         1 <0>         0.0740
     61 H26         4.9285   -1.9502   -3.4070 H         1 <0>         0.0631
     62 H27         6.0226    0.9442   -3.2312 H         1 <0>         0.0970
     63 H28         4.7647    1.7133   -4.2128 H         1 <0>         0.0725
     64 H29         3.7703   -3.1244   -1.5692 H         1 <0>         0.0839
     65 H30         0.9202   -2.1424   -5.0226 H         1 <0>         0.4531
     66 H31         6.1929   -1.2474   -7.3223 H         1 <0>         0.4798
     67 H32         4.9258   -0.5407   -8.2753 H         1 <0>         0.4881
     68 H33         3.5064    1.4907   -5.6261 H         1 <0>         0.4801
     69 H34         3.3717    1.0398   -7.3014 H         1 <0>         0.4806
     70 H35         6.3922   -0.6250   -4.9615 H         1 <0>         0.4689
     71 H36         1.6613   -1.3957   -2.7560 H         1 <0>         0.4505
     72 H37         0.5099   -2.9556    2.0129 H         1 <0>         0.4443
@<TRIPOS>BOND
     1    1    2 ar
     2    1    3 ar
     3    2    4 ar
     4    3    6 ar
     5    4    5 ar
     6    4   10 1
     7    5    6 ar
     8    5   24 1
     9    6   35 1
    10    7   15 1
    11    7   30 2
    12    7   34 1
    13    8   23 1
    14    8   25 am
    15    8   31 2
    16    9   26 1
    17    9   27 1
    18    9   28 1
    19   10   16 1
    20   11   13 1
    21   11   17 1
    22   12   15 1
    23   12   17 1
    24   13   25 1
    25   14   16 1
    26   14   24 1
    27   15   25 1
    28   16   18 1
    29   17   19 1
    30   20   21 1
    31   20   22 1
    32   21   23 1
    33   22   28 1
    34   23   29 1
    35   29   35 1
    36   32   35 2
    37   33   35 2
    38    1   36 1
    39    2   37 1
    40    3   38 1
    41   10   39 1
    42   10   40 1
    43   11   41 1
    44   11   42 1
    45   12   43 1
    46   12   44 1
    47   13   45 1
    48   13   46 1
    49   14   47 1
    50   14   48 1
    51   15   49 1
    52   16   50 1
    53   17   51 1
    54   18   52 1
    55   18   53 1
    56   18   54 1
    57   19   55 1
    58   19   56 1
    59   19   57 1
    60   20   58 1
    61   20   59 1
    62   21   60 1
    63   21   61 1
    64   22   62 1
    65   22   63 1
    66   23   64 1
    67   24   65 1
    68   26   66 1
    69   26   67 1
    70   27   68 1
    71   27   69 1
    72   28   70 1
    73   29   71 1
    74   34   72 1
@<TRIPOS>MOLECULE
1dwc_ligand_151
   72    74     0     0     0
SMALL
USER_CHARGES

mmff94s_NoEstat = 78.43
@<TRIPOS>ATOM
      1 C1          6.5406    1.4245   -2.2182 C.ar      1 <0>        -0.1945
      2 C2          6.6985    1.8302   -0.8947 C.ar      1 <0>        -0.0294
      3 C3          6.3835    0.0742   -2.5155 C.ar      1 <0>        -0.0143
      4 C4          6.7040    0.8848    0.1410 C.ar      1 <0>        -0.1552
      5 C5          6.5167   -0.4809   -0.1490 C.ar      1 <0>         0.3076
      6 C6          6.3751   -0.8712   -1.4886 C.ar      1 <0>        -0.4908
      7 C7          2.0882    1.3922    0.7300 C.2       1 <0>         0.5994
      8 C8          2.9466   -1.3973   -0.6457 C.2       1 <0>         0.6462
      9 C9          1.3561   -7.4334   -0.9876 C.cat     1 <0>         0.6305
     10 C10         6.8681    1.3449    1.5697 C.3       1 <0>        -0.0319
     11 C11         0.6780    1.1331   -2.2610 C.3       1 <0>        -0.0918
     12 C12        -0.1529    0.5740    0.0907 C.3       1 <0>        -0.0841
     13 C13         1.2387   -0.2803   -2.1462 C.3       1 <0>         0.0870
     14 C14         6.4788   -1.0425    2.2496 C.3       1 <0>         0.2023
     15 C15         1.2984    0.1597    0.3217 C.3       1 <0>         0.0778
     16 C16         7.3211    0.2120    2.5051 C.3       1 <0>        -0.0746
     17 C17        -0.3349    1.4629   -1.1526 C.3       1 <0>        -0.0681
     18 C18         8.8220   -0.0713    2.3751 C.3       1 <0>        -0.0944
     19 C19        -1.7730    1.3656   -1.6649 C.3       1 <0>        -0.0918
     20 C20         2.0376   -4.1819   -1.4375 C.3       1 <0>        -0.1192
     21 C21         2.4114   -3.0756   -2.4306 C.3       1 <0>        -0.0916
     22 C22         1.0502   -5.1786   -2.0318 C.3       1 <0>         0.1883
     23 C23         3.4544   -2.1251   -1.8653 C.3       1 <0>         0.1952
     24 N1          6.5251   -1.4407    0.8554 N.pl3     1 <0>        -0.7670
     25 N2          1.8770   -0.5193   -0.8436 N.am      1 <0>        -0.4509
     26 N3          0.9863   -8.4016   -0.0599 N.pl3     1 <0>        -0.8477
     27 N4          2.4179   -7.6897   -1.8483 N.pl3     1 <0>        -0.8633
     28 N5          0.6828   -6.2099   -1.0722 N.pl3     1 <0>        -0.7419
     29 N6          4.6097   -2.8934   -1.3678 N.pl3     1 <0>        -0.8860
     30 O1          1.8272    2.1085    1.6851 O.2       1 <0>        -0.5199
     31 O2          3.4814   -1.5970    0.4480 O.2       1 <0>        -0.6131
     32 O3          6.1698   -2.6265   -3.3996 O.2       1 <0>        -0.6576
     33 O4          7.1388   -3.3235   -1.1861 O.2       1 <0>        -0.6482
     34 O5          3.1288    1.5954   -0.1145 O.3       1 <0>        -0.6303
     35 S1          6.1736   -2.5573   -1.9508 S.o2      1 <0>         1.5193
     36 H1          6.5435    2.1609   -3.0173 H         1 <0>         0.1426
     37 H2          6.8235    2.8872   -0.6719 H         1 <0>         0.1398
     38 H3          6.2656   -0.2543   -3.5434 H         1 <0>         0.1599
     39 H4          7.5861    2.1725    1.6211 H         1 <0>         0.0574
     40 H5          5.8975    1.7275    1.9104 H         1 <0>         0.0629
     41 H6          1.5141    1.8416   -2.1898 H         1 <0>         0.0614
     42 H7          0.2338    1.2823   -3.2521 H         1 <0>         0.0593
     43 H8         -0.7558   -0.3373   -0.0247 H         1 <0>         0.0841
     44 H9         -0.5517    1.0973    0.9692 H         1 <0>         0.0679
     45 H10         0.4403   -1.0236   -2.2568 H         1 <0>         0.0826
     46 H11         1.9618   -0.4554   -2.9487 H         1 <0>         0.0383
     47 H12         6.8300   -1.8717    2.8739 H         1 <0>         0.0556
     48 H13         5.4356   -0.8502    2.5290 H         1 <0>         0.0415
     49 H14         1.3456   -0.5214    1.1798 H         1 <0>         0.0851
     50 H15         7.1566    0.5367    3.5400 H         1 <0>         0.0639
     51 H16        -0.1781    2.5096   -0.8621 H         1 <0>         0.0584
     52 H17         9.2504    0.4995    1.5459 H         1 <0>         0.0401
     53 H18         9.3470    0.2082    3.2934 H         1 <0>         0.0440
     54 H19         8.9975   -1.1349    2.1879 H         1 <0>         0.0459
     55 H20        -2.0235    2.2384   -2.2752 H         1 <0>         0.0456
     56 H21        -1.9032    0.4682   -2.2772 H         1 <0>         0.0366
     57 H22        -2.4765    1.3170   -0.8283 H         1 <0>         0.0474
     58 H23         2.9446   -4.7113   -1.1217 H         1 <0>         0.0800
     59 H24         1.5893   -3.7381   -0.5411 H         1 <0>         0.0681
     60 H25         1.5058   -2.5277   -2.7226 H         1 <0>         0.0740
     61 H26         2.8104   -3.5289   -3.3468 H         1 <0>         0.0631
     62 H27         1.4667   -5.6672   -2.9184 H         1 <0>         0.0970
     63 H28         0.1320   -4.6626   -2.3297 H         1 <0>         0.0725
     64 H29         3.7902   -1.3903   -2.5956 H         1 <0>         0.0839
     65 H30         6.3115   -2.3985    0.6051 H         1 <0>         0.4531
     66 H31         0.2183   -8.2576    0.5903 H         1 <0>         0.4798
     67 H32         1.4817   -9.2885   -0.0047 H         1 <0>         0.4881
     68 H33         2.7145   -7.0040   -2.5385 H         1 <0>         0.4801
     69 H34         2.9252   -8.5706   -1.8109 H         1 <0>         0.4806
     70 H35        -0.0925   -6.0509   -0.4270 H         1 <0>         0.4689
     71 H36         4.5044   -3.3037   -0.4338 H         1 <0>         0.4505
     72 H37         3.6507    2.3888    0.1315 H         1 <0>         0.4443
@<TRIPOS>BOND
     1    1    2 ar
     2    1    3 ar
     3    2    4 ar
     4    3    6 ar
     5    4    5 ar
     6    4   10 1
     7    5    6 ar
     8    5   24 1
     9    6   35 1
    10    7   15 1
    11    7   30 2
    12    7   34 1
    13    8   23 1
    14    8   25 am
    15    8   31 2
    16    9   26 1
    17    9   27 1
    18    9   28 1
    19   10   16 1
    20   11   13 1
    21   11   17 1
    22   12   15 1
    23   12   17 1
    24   13   25 1
    25   14   16 1
    26   14   24 1
    27   15   25 1
    28   16   18 1
    29   17   19 1
    30   20   21 1
    31   20   22 1
    32   21   23 1
    33   22   28 1
    34   23   29 1
    35   29   35 1
    36   32   35 2
    37   33   35 2
    38    1   36 1
    39    2   37 1
    40    3   38 1
    41   10   39 1
    42   10   40 1
    43   11   41 1
    44   11   42 1
    45   12   43 1
    46   12   44 1
    47   13   45 1
    48   13   46 1
    49   14   47 1
    50   14   48 1
    51   15   49 1
    52   16   50 1
    53   17   51 1
    54   18   52 1
    55   18   53 1
    56   18   54 1
    57   19   55 1
    58   19   56 1
    59   19   57 1
    60   20   58 1
    61   20   59 1
    62   21   60 1
    63   21   61 1
    64   22   62 1
    65   22   63 1
    66   23   64 1
    67   24   65 1
    68   26   66 1
    69   26   67 1
    70   27   68 1
    71   27   69 1
    72   28   70 1
    73   29   71 1
    74   34   72 1
@<TRIPOS>MOLECULE
1dwc_ligand_152
   72    74     0     0     0
SMALL
USER_CHARGES

mmff94s_NoEstat = 78.49
@<TRIPOS>ATOM
      1 C1          6.3583   -3.8511   -5.7393 C.ar      1 <0>        -0.1945
      2 C2          6.4340   -5.2363   -5.6108 C.ar      1 <0>        -0.0294
      3 C3          6.2774   -3.0526   -4.6025 C.ar      1 <0>        -0.0143
      4 C4          6.4254   -5.8324   -4.3415 C.ar      1 <0>        -0.1552
      5 C5          6.3727   -5.0296   -3.1851 C.ar      1 <0>         0.3076
      6 C6          6.2812   -3.6382   -3.3354 C.ar      1 <0>        -0.4908
      7 C7          2.8752    1.3115    1.1058 C.2       1 <0>         0.5994
      8 C8          2.9466   -1.3973   -0.6457 C.2       1 <0>         0.6462
      9 C9         -0.4580   -4.4953   -5.3309 C.cat     1 <0>         0.6305
     10 C10         6.5165   -7.3348   -4.2226 C.3       1 <0>        -0.0319
     11 C11         2.3641    2.0271   -2.0925 C.3       1 <0>        -0.0918
     12 C12         0.7649    1.6065   -0.1433 C.3       1 <0>        -0.0841
     13 C13         2.2856    0.5067   -2.1800 C.3       1 <0>         0.0870
     14 C14         6.6392   -7.0033   -1.7349 C.3       1 <0>         0.2023
     15 C15         1.8211    0.5897    0.2827 C.3       1 <0>         0.0778
     16 C16         6.0288   -7.8484   -2.8581 C.3       1 <0>        -0.0746
     17 C17         1.2898    2.6259   -1.1701 C.3       1 <0>        -0.0681
     18 C18         4.4985   -7.8884   -2.7758 C.3       1 <0>        -0.0944
     19 C19         0.1276    3.2108   -1.9746 C.3       1 <0>        -0.0918
     20 C20         2.8965   -3.7759   -3.7050 C.3       1 <0>        -0.1192
     21 C21         2.4114   -3.0756   -2.4306 C.3       1 <0>        -0.0916
     22 C22         1.8232   -4.6695   -4.3142 C.3       1 <0>         0.1883
     23 C23         3.4544   -2.1251   -1.8653 C.3       1 <0>         0.1952
     24 N1          6.3551   -5.5922   -1.9150 N.pl3     1 <0>        -0.7670
     25 N2          2.3949   -0.1309   -0.8598 N.am      1 <0>        -0.4509
     26 N3         -1.5750   -3.7458   -5.6850 N.pl3     1 <0>        -0.8477
     27 N4         -0.4378   -5.8568   -5.6135 N.pl3     1 <0>        -0.8633
     28 N5          0.6428   -3.9085   -4.6977 N.pl3     1 <0>        -0.7419
     29 N6          4.6097   -2.8934   -1.3678 N.pl3     1 <0>        -0.8860
     30 O1          2.6539    1.9546    2.1211 O.2       1 <0>        -0.5199
     31 O2          3.0377   -1.9312    0.4627 O.2       1 <0>        -0.6131
     32 O3          7.1528   -2.9869   -0.9708 O.2       1 <0>        -0.6576
     33 O4          6.2050   -1.2028   -2.4684 O.2       1 <0>        -0.6482
     34 O5          4.1045    1.1486    0.5584 O.3       1 <0>        -0.6303
     35 S1          6.1736   -2.5573   -1.9508 S.o2      1 <0>         1.5193
     36 H1          6.3590   -3.3950   -6.7257 H         1 <0>         0.1426
     37 H2          6.4940   -5.8526   -6.5047 H         1 <0>         0.1398
     38 H3          6.2119   -1.9726   -4.6904 H         1 <0>         0.1599
     39 H4          5.9394   -7.8139   -5.0228 H         1 <0>         0.0574
     40 H5          7.5683   -7.6169   -4.3590 H         1 <0>         0.0629
     41 H6          3.3521    2.2982   -1.6971 H         1 <0>         0.0614
     42 H7          2.3049    2.4652   -3.0956 H         1 <0>         0.0593
     43 H8         -0.0830    1.0592   -0.5778 H         1 <0>         0.0841
     44 H9          0.3696    2.1440    0.7282 H         1 <0>         0.0679
     45 H10         1.3285    0.1928   -2.6129 H         1 <0>         0.0826
     46 H11         3.0787    0.1346   -2.8358 H         1 <0>         0.0383
     47 H12         6.2551   -7.3277   -0.7613 H         1 <0>         0.0556
     48 H13         7.7266   -7.1463   -1.7144 H         1 <0>         0.0415
     49 H14         1.3638   -0.1412    0.9605 H         1 <0>         0.0851
     50 H15         6.3715   -8.8838   -2.7401 H         1 <0>         0.0639
     51 H16         1.7477    3.4645   -0.6301 H         1 <0>         0.0584
     52 H17         4.0538   -7.4183   -3.6581 H         1 <0>         0.0401
     53 H18         4.1433   -8.9217   -2.7201 H         1 <0>         0.0440
     54 H19         4.1474   -7.3549   -1.8875 H         1 <0>         0.0459
     55 H20         0.4103    4.1714   -2.4154 H         1 <0>         0.0456
     56 H21        -0.1604    2.5322   -2.7831 H         1 <0>         0.0366
     57 H22        -0.7432    3.3698   -1.3317 H         1 <0>         0.0474
     58 H23         3.2051   -3.0234   -4.4407 H         1 <0>         0.0800
     59 H24         3.7751   -4.3904   -3.4776 H         1 <0>         0.0681
     60 H25         2.1309   -3.8309   -1.6847 H         1 <0>         0.0740
     61 H26         1.5011   -2.5046   -2.6534 H         1 <0>         0.0631
     62 H27         1.5147   -5.4515   -3.6131 H         1 <0>         0.0970
     63 H28         2.2095   -5.1562   -5.2154 H         1 <0>         0.0725
     64 H29         3.7902   -1.3903   -2.5956 H         1 <0>         0.0839
     65 H30         6.3928   -4.9720   -1.1154 H         1 <0>         0.4531
     66 H31        -1.6351   -2.7487   -5.4967 H         1 <0>         0.4798
     67 H32        -2.3717   -4.1807   -6.1447 H         1 <0>         0.4881
     68 H33         0.3627   -6.4344   -5.3682 H         1 <0>         0.4801
     69 H34        -1.2230   -6.3107   -6.0740 H         1 <0>         0.4806
     70 H35         0.5986   -2.9070   -4.5034 H         1 <0>         0.4689
     71 H36         4.5044   -3.3037   -0.4338 H         1 <0>         0.4505
     72 H37         4.7996    1.6094    1.0749 H         1 <0>         0.4443
@<TRIPOS>BOND
     1    1    2 ar
     2    1    3 ar
     3    2    4 ar
     4    3    6 ar
     5    4    5 ar
     6    4   10 1
     7    5    6 ar
     8    5   24 1
     9    6   35 1
    10    7   15 1
    11    7   30 2
    12    7   34 1
    13    8   23 1
    14    8   25 am
    15    8   31 2
    16    9   26 1
    17    9   27 1
    18    9   28 1
    19   10   16 1
    20   11   13 1
    21   11   17 1
    22   12   15 1
    23   12   17 1
    24   13   25 1
    25   14   16 1
    26   14   24 1
    27   15   25 1
    28   16   18 1
    29   17   19 1
    30   20   21 1
    31   20   22 1
    32   21   23 1
    33   22   28 1
    34   23   29 1
    35   29   35 1
    36   32   35 2
    37   33   35 2
    38    1   36 1
    39    2   37 1
    40    3   38 1
    41   10   39 1
    42   10   40 1
    43   11   41 1
    44   11   42 1
    45   12   43 1
    46   12   44 1
    47   13   45 1
    48   13   46 1
    49   14   47 1
    50   14   48 1
    51   15   49 1
    52   16   50 1
    53   17   51 1
    54   18   52 1
    55   18   53 1
    56   18   54 1
    57   19   55 1
    58   19   56 1
    59   19   57 1
    60   20   58 1
    61   20   59 1
    62   21   60 1
    63   21   61 1
    64   22   62 1
    65   22   63 1
    66   23   64 1
    67   24   65 1
    68   26   66 1
    69   26   67 1
    70   27   68 1
    71   27   69 1
    72   28   70 1
    73   29   71 1
    74   34   72 1
@<TRIPOS>MOLECULE
1dwc_ligand_153
   72    74     0     0     0
SMALL
USER_CHARGES

mmff94s_NoEstat = 78.53
@<TRIPOS>ATOM
      1 C1          3.3573   -6.5839   -3.9260 C.ar      1 <0>        -0.1945
      2 C2          2.9868   -6.6835   -5.2655 C.ar      1 <0>        -0.0294
      3 C3          2.7897   -5.6011   -3.1205 C.ar      1 <0>        -0.0143
      4 C4          2.0411   -5.8010   -5.8068 C.ar      1 <0>        -0.1552
      5 C5          1.4834   -4.7849   -5.0054 C.ar      1 <0>         0.3076
      6 C6          1.8576   -4.7107   -3.6559 C.ar      1 <0>        -0.4908
      7 C7          2.4038   -0.4910    2.4030 C.2       1 <0>         0.5994
      8 C8          2.9466   -1.3973   -0.6457 C.2       1 <0>         0.6462
      9 C9          6.7753    0.8568   -5.4736 C.cat     1 <0>         0.6305
     10 C10         1.6570   -5.9189   -7.2623 C.3       1 <0>        -0.0319
     11 C11         3.9178   -3.4419    2.3602 C.3       1 <0>        -0.0918
     12 C12         4.8012   -1.0545    2.5913 C.3       1 <0>        -0.0841
     13 C13         4.0430   -3.0960    0.8803 C.3       1 <0>         0.0870
     14 C14         0.2865   -3.8442   -6.9410 C.3       1 <0>         0.2023
     15 C15         3.6790   -0.7248    1.6100 C.3       1 <0>         0.0778
     16 C16         0.2994   -5.2543   -7.5401 C.3       1 <0>        -0.0746
     17 C17         4.6242   -2.4243    3.2705 C.3       1 <0>        -0.0681
     18 C18         0.0096   -5.2160   -9.0381 C.3       1 <0>        -0.0944
     19 C19         5.9763   -2.9527    3.7531 C.3       1 <0>        -0.0918
     20 C20         5.1203   -2.1076   -3.7746 C.3       1 <0>        -0.1192
     21 C21         4.5564   -1.3488   -2.5679 C.3       1 <0>        -0.0916
     22 C22         6.2766   -1.3646   -4.4322 C.3       1 <0>         0.1883
     23 C23         3.4544   -2.1251   -1.8653 C.3       1 <0>         0.1952
     24 N1          0.5438   -3.8968   -5.5143 N.pl3     1 <0>        -0.7670
     25 N2          3.5192   -1.7560    0.5781 N.am      1 <0>        -0.4509
     26 N3          6.3666    2.1153   -5.9029 N.pl3     1 <0>        -0.8477
     27 N4          8.1063    0.4860   -5.6311 N.pl3     1 <0>        -0.8633
     28 N5          5.8764   -0.0411   -4.8880 N.pl3     1 <0>        -0.7419
     29 N6          2.2741   -2.2179   -2.7432 N.pl3     1 <0>        -0.8860
     30 O1          2.2729    0.3351    3.2940 O.2       1 <0>        -0.5199
     31 O2          2.0685   -0.5400   -0.7710 O.2       1 <0>        -0.6131
     32 O3         -0.1165   -3.1121   -3.0880 O.2       1 <0>        -0.6576
     33 O4          1.2896   -4.0436   -1.2226 O.2       1 <0>        -0.6482
     34 O5          1.4223   -1.3294    1.9894 O.3       1 <0>        -0.6303
     35 S1          1.1775   -3.5081   -2.5659 S.o2      1 <0>         1.5193
     36 H1          4.0855   -7.2747   -3.5103 H         1 <0>         0.1426
     37 H2          3.4332   -7.4564   -5.8867 H         1 <0>         0.1398
     38 H3          3.0661   -5.5178   -2.0742 H         1 <0>         0.1599
     39 H4          2.4428   -5.4466   -7.8655 H         1 <0>         0.0574
     40 H5          1.6039   -6.9760   -7.5504 H         1 <0>         0.0629
     41 H6          2.8510   -3.4591    2.6203 H         1 <0>         0.0614
     42 H7          4.2939   -4.4553    2.5428 H         1 <0>         0.0593
     43 H8          5.7524   -1.0436    2.0413 H         1 <0>         0.0841
     44 H9          4.8832   -0.2779    3.3625 H         1 <0>         0.0679
     45 H10         5.0934   -3.1114    0.5668 H         1 <0>         0.0826
     46 H11         3.5122   -3.8428    0.2819 H         1 <0>         0.0383
     47 H12         1.0431   -3.2133   -7.4240 H         1 <0>         0.0556
     48 H13        -0.6867   -3.3699   -7.1100 H         1 <0>         0.0415
     49 H14         3.9015    0.2290    1.1168 H         1 <0>         0.0851
     50 H15        -0.4891   -5.8484   -7.0586 H         1 <0>         0.0639
     51 H16         4.0032   -2.2947    4.1661 H         1 <0>         0.0584
     52 H17        -1.0416   -4.9733   -9.2201 H         1 <0>         0.0401
     53 H18         0.6281   -4.4593   -9.5301 H         1 <0>         0.0440
     54 H19         0.2233   -6.1865   -9.4958 H         1 <0>         0.0459
     55 H20         5.8782   -3.4157    4.7396 H         1 <0>         0.0456
     56 H21         6.3665   -3.7022    3.0580 H         1 <0>         0.0366
     57 H22         6.7034   -2.1384    3.8257 H         1 <0>         0.0474
     58 H23         5.4592   -3.1007   -3.4560 H         1 <0>         0.0800
     59 H24         4.3307   -2.2553   -4.5204 H         1 <0>         0.0681
     60 H25         4.1906   -0.3664   -2.8945 H         1 <0>         0.0740
     61 H26         5.3633   -1.1575   -1.8491 H         1 <0>         0.0631
     62 H27         6.6666   -1.9201   -5.2910 H         1 <0>         0.0970
     63 H28         7.0930   -1.2338   -3.7147 H         1 <0>         0.0725
     64 H29         3.7703   -3.1244   -1.5692 H         1 <0>         0.0839
     65 H30         0.2284   -3.1382   -4.9224 H         1 <0>         0.4531
     66 H31         5.4041    2.4285   -5.8100 H         1 <0>         0.4798
     67 H32         7.0268    2.7620   -6.3283 H         1 <0>         0.4881
     68 H33         8.4388   -0.4263   -5.3285 H         1 <0>         0.4801
     69 H34         8.7827    1.1182   -6.0523 H         1 <0>         0.4806
     70 H35         4.9060    0.2597   -4.7858 H         1 <0>         0.4689
     71 H36         1.9407   -1.3323   -3.1385 H         1 <0>         0.4505
     72 H37         0.5902   -1.1952    2.4913 H         1 <0>         0.4443
@<TRIPOS>BOND
     1    1    2 ar
     2    1    3 ar
     3    2    4 ar
     4    3    6 ar
     5    4    5 ar
     6    4   10 1
     7    5    6 ar
     8    5   24 1
     9    6   35 1
    10    7   15 1
    11    7   30 2
    12    7   34 1
    13    8   23 1
    14    8   25 am
    15    8   31 2
    16    9   26 1
    17    9   27 1
    18    9   28 1
    19   10   16 1
    20   11   13 1
    21   11   17 1
    22   12   15 1
    23   12   17 1
    24   13   25 1
    25   14   16 1
    26   14   24 1
    27   15   25 1
    28   16   18 1
    29   17   19 1
    30   20   21 1
    31   20   22 1
    32   21   23 1
    33   22   28 1
    34   23   29 1
    35   29   35 1
    36   32   35 2
    37   33   35 2
    38    1   36 1
    39    2   37 1
    40    3   38 1
    41   10   39 1
    42   10   40 1
    43   11   41 1
    44   11   42 1
    45   12   43 1
    46   12   44 1
    47   13   45 1
    48   13   46 1
    49   14   47 1
    50   14   48 1
    51   15   49 1
    52   16   50 1
    53   17   51 1
    54   18   52 1
    55   18   53 1
    56   18   54 1
    57   19   55 1
    58   19   56 1
    59   19   57 1
    60   20   58 1
    61   20   59 1
    62   21   60 1
    63   21   61 1
    64   22   62 1
    65   22   63 1
    66   23   64 1
    67   24   65 1
    68   26   66 1
    69   26   67 1
    70   27   68 1
    71   27   69 1
    72   28   70 1
    73   29   71 1
    74   34   72 1
@<TRIPOS>MOLECULE
1dwc_ligand_154
   72    74     0     0     0
SMALL
USER_CHARGES

mmff94s_NoEstat = 78.53
@<TRIPOS>ATOM
      1 C1         -0.1021   -7.1683    0.7355 C.ar      1 <0>        -0.1945
      2 C2         -0.5792   -8.1239    1.6301 C.ar      1 <0>        -0.0294
      3 C3          0.6637   -6.1037    1.2012 C.ar      1 <0>        -0.0143
      4 C4         -0.2955   -8.0178    2.9994 C.ar      1 <0>        -0.1552
      5 C5          0.5031   -6.9592    3.4747 C.ar      1 <0>         0.3076
      6 C6          0.9609   -5.9987    2.5610 C.ar      1 <0>        -0.4908
      7 C7         -1.4628    0.1636    1.3526 C.2       1 <0>         0.5994
      8 C8          0.8654   -1.4427    3.2413 C.2       1 <0>         0.6462
      9 C9         -3.0269   -4.2491    7.1046 C.cat     1 <0>         0.6305
     10 C10        -0.8145   -9.0679    3.9520 C.3       1 <0>        -0.0319
     11 C11         2.1918    0.8805    0.7195 C.3       1 <0>        -0.0918
     12 C12         0.2821   -0.3679   -0.3105 C.3       1 <0>        -0.0841
     13 C13         1.6113    0.6116    2.1020 C.3       1 <0>         0.0870
     14 C14         0.4940   -7.9005    5.7515 C.3       1 <0>         0.2023
     15 C15        -0.2506   -0.7126    1.0828 C.3       1 <0>         0.0778
     16 C16        -0.8357   -8.5817    5.4103 C.3       1 <0>        -0.0746
     17 C17         1.0859    0.9390   -0.3376 C.3       1 <0>        -0.0681
     18 C18        -2.0342   -7.6681    5.6911 C.3       1 <0>        -0.0944
     19 C19         1.6740    1.1859   -1.7255 C.3       1 <0>        -0.0918
     20 C20        -1.0866   -2.1427    5.4567 C.3       1 <0>        -0.1192
     21 C21        -1.3133   -2.4479    3.9716 C.3       1 <0>        -0.0916
     22 C22        -2.3970   -1.9935    6.2196 C.3       1 <0>         0.1883
     23 C23        -0.0078   -2.6730    3.2260 C.3       1 <0>         0.1952
     24 N1          0.7943   -6.8242    4.8264 N.pl3     1 <0>        -0.7670
     25 N2          0.7744   -0.5925    2.1333 N.am      1 <0>        -0.4509
     26 N3         -3.7970   -5.4059    7.0420 N.pl3     1 <0>        -0.8477
     27 N4         -2.0778   -4.1204    8.1129 N.pl3     1 <0>        -0.8633
     28 N5         -3.1876   -3.2152    6.1760 N.pl3     1 <0>        -0.7419
     29 N6          0.7961   -3.6905    3.9267 N.pl3     1 <0>        -0.8860
     30 O1         -1.4385    1.2323    1.9447 O.2       1 <0>        -0.5199
     31 O2          1.6103   -1.2468    4.2054 O.2       1 <0>        -0.6131
     32 O3          2.9489   -5.1033    3.9827 O.2       1 <0>        -0.6576
     33 O4          2.3147   -3.9087    1.8626 O.2       1 <0>        -0.6482
     34 O5         -2.5854   -0.4037    0.8474 O.3       1 <0>        -0.6303
     35 S1          1.9328   -4.6215    3.0666 S.o2      1 <0>         1.5193
     36 H1         -0.3304   -7.2521   -0.3236 H         1 <0>         0.1426
     37 H2         -1.1793   -8.9508    1.2577 H         1 <0>         0.1398
     38 H3          1.0358   -5.3499    0.5144 H         1 <0>         0.1599
     39 H4         -1.8224   -9.3834    3.6556 H         1 <0>         0.0574
     40 H5         -0.1575   -9.9435    3.8733 H         1 <0>         0.0629
     41 H6          2.7495    1.8244    0.7335 H         1 <0>         0.0614
     42 H7          2.9066    0.0878    0.4640 H         1 <0>         0.0593
     43 H8          0.9336   -1.1873   -0.6438 H         1 <0>         0.0841
     44 H9         -0.5414   -0.3095   -1.0336 H         1 <0>         0.0679
     45 H10         2.4269    0.5309    2.8282 H         1 <0>         0.0826
     46 H11         0.9807    1.4504    2.4206 H         1 <0>         0.0383
     47 H12         0.4682   -7.5028    6.7722 H         1 <0>         0.0556
     48 H13         1.3063   -8.6368    5.7145 H         1 <0>         0.0415
     49 H14        -0.6325   -1.7382    1.0612 H         1 <0>         0.0851
     50 H15        -0.9553   -9.4568    6.0608 H         1 <0>         0.0639
     51 H16         0.4173    1.7778   -0.1080 H         1 <0>         0.0584
     52 H17        -2.5659   -7.4356    4.7636 H         1 <0>         0.0401
     53 H18        -2.7347   -8.1530    6.3776 H         1 <0>         0.0440
     54 H19        -1.7034   -6.7283    6.1433 H         1 <0>         0.0459
     55 H20         1.1081    0.6390   -2.4855 H         1 <0>         0.0456
     56 H21         1.6425    2.2512   -1.9725 H         1 <0>         0.0366
     57 H22         2.7156    0.8534   -1.7662 H         1 <0>         0.0474
     58 H23        -0.4913   -2.9455    5.9081 H         1 <0>         0.0800
     59 H24        -0.5143   -1.2136    5.5600 H         1 <0>         0.0681
     60 H25        -1.8840   -1.6286    3.5148 H         1 <0>         0.0740
     61 H26        -1.9315   -3.3495    3.8758 H         1 <0>         0.0631
     62 H27        -3.0022   -1.1781    5.8107 H         1 <0>         0.0970
     63 H28        -2.1935   -1.7693    7.2716 H         1 <0>         0.0725
     64 H29        -0.1638   -2.9774    2.1921 H         1 <0>         0.0839
     65 H30         1.4333   -6.0909    5.1082 H         1 <0>         0.4531
     66 H31        -4.5036   -5.5429    6.3243 H         1 <0>         0.4798
     67 H32        -3.6741   -6.1527    7.7218 H         1 <0>         0.4881
     68 H33        -1.4980   -3.2881    8.1880 H         1 <0>         0.4801
     69 H34        -1.9378   -4.8560    8.8013 H         1 <0>         0.4806
     70 H35        -3.8923   -3.3388    5.4474 H         1 <0>         0.4689
     71 H36         0.9382   -3.5340    4.9302 H         1 <0>         0.4505
     72 H37        -3.3805    0.1466    1.0133 H         1 <0>         0.4443
@<TRIPOS>BOND
     1    1    2 ar
     2    1    3 ar
     3    2    4 ar
     4    3    6 ar
     5    4    5 ar
     6    4   10 1
     7    5    6 ar
     8    5   24 1
     9    6   35 1
    10    7   15 1
    11    7   30 2
    12    7   34 1
    13    8   23 1
    14    8   25 am
    15    8   31 2
    16    9   26 1
    17    9   27 1
    18    9   28 1
    19   10   16 1
    20   11   13 1
    21   11   17 1
    22   12   15 1
    23   12   17 1
    24   13   25 1
    25   14   16 1
    26   14   24 1
    27   15   25 1
    28   16   18 1
    29   17   19 1
    30   20   21 1
    31   20   22 1
    32   21   23 1
    33   22   28 1
    34   23   29 1
    35   29   35 1
    36   32   35 2
    37   33   35 2
    38    1   36 1
    39    2   37 1
    40    3   38 1
    41   10   39 1
    42   10   40 1
    43   11   41 1
    44   11   42 1
    45   12   43 1
    46   12   44 1
    47   13   45 1
    48   13   46 1
    49   14   47 1
    50   14   48 1
    51   15   49 1
    52   16   50 1
    53   17   51 1
    54   18   52 1
    55   18   53 1
    56   18   54 1
    57   19   55 1
    58   19   56 1
    59   19   57 1
    60   20   58 1
    61   20   59 1
    62   21   60 1
    63   21   61 1
    64   22   62 1
    65   22   63 1
    66   23   64 1
    67   24   65 1
    68   26   66 1
    69   26   67 1
    70   27   68 1
    71   27   69 1
    72   28   70 1
    73   29   71 1
    74   34   72 1
@<TRIPOS>MOLECULE
1dwc_ligand_155
   72    74     0     0     0
SMALL
USER_CHARGES

mmff94s_NoEstat = 78.54
@<TRIPOS>ATOM
      1 C1          6.5406    1.4245   -2.2182 C.ar      1 <0>        -0.1945
      2 C2          6.6985    1.8302   -0.8947 C.ar      1 <0>        -0.0294
      3 C3          6.3835    0.0742   -2.5155 C.ar      1 <0>        -0.0143
      4 C4          6.7040    0.8848    0.1410 C.ar      1 <0>        -0.1552
      5 C5          6.5167   -0.4809   -0.1490 C.ar      1 <0>         0.3076
      6 C6          6.3751   -0.8712   -1.4886 C.ar      1 <0>        -0.4908
      7 C7          2.0882    1.3922    0.7300 C.2       1 <0>         0.5994
      8 C8          2.9466   -1.3973   -0.6457 C.2       1 <0>         0.6462
      9 C9          4.1086   -2.7641   -7.1577 C.cat     1 <0>         0.6305
     10 C10         6.8681    1.3449    1.5697 C.3       1 <0>        -0.0319
     11 C11         0.6780    1.1331   -2.2610 C.3       1 <0>        -0.0918
     12 C12        -0.1529    0.5740    0.0907 C.3       1 <0>        -0.0841
     13 C13         1.2387   -0.2803   -2.1462 C.3       1 <0>         0.0870
     14 C14         6.4788   -1.0425    2.2496 C.3       1 <0>         0.2023
     15 C15         1.2984    0.1597    0.3217 C.3       1 <0>         0.0778
     16 C16         7.3211    0.2120    2.5051 C.3       1 <0>        -0.0746
     17 C17        -0.3349    1.4629   -1.1526 C.3       1 <0>        -0.0681
     18 C18         8.8220   -0.0713    2.3751 C.3       1 <0>        -0.0944
     19 C19        -1.7730    1.3656   -1.6649 C.3       1 <0>        -0.0918
     20 C20         2.8965   -3.7759   -3.7050 C.3       1 <0>        -0.1192
     21 C21         2.4114   -3.0756   -2.4306 C.3       1 <0>        -0.0916
     22 C22         3.3037   -2.7834   -4.7871 C.3       1 <0>         0.1883
     23 C23         3.4544   -2.1251   -1.8653 C.3       1 <0>         0.1952
     24 N1          6.5251   -1.4407    0.8554 N.pl3     1 <0>        -0.7670
     25 N2          1.8770   -0.5193   -0.8436 N.am      1 <0>        -0.4509
     26 N3          4.5226   -3.4337   -8.3045 N.pl3     1 <0>        -0.8477
     27 N4          4.0627   -1.3741   -7.1636 N.pl3     1 <0>        -0.8633
     28 N5          3.7384   -3.4589   -6.0012 N.pl3     1 <0>        -0.7419
     29 N6          4.6097   -2.8934   -1.3678 N.pl3     1 <0>        -0.8860
     30 O1          1.8272    2.1085    1.6851 O.2       1 <0>        -0.5199
     31 O2          3.4814   -1.5970    0.4480 O.2       1 <0>        -0.6131
     32 O3          6.1698   -2.6265   -3.3996 O.2       1 <0>        -0.6576
     33 O4          7.1388   -3.3235   -1.1861 O.2       1 <0>        -0.6482
     34 O5          3.1288    1.5954   -0.1145 O.3       1 <0>        -0.6303
     35 S1          6.1736   -2.5573   -1.9508 S.o2      1 <0>         1.5193
     36 H1          6.5435    2.1609   -3.0173 H         1 <0>         0.1426
     37 H2          6.8235    2.8872   -0.6719 H         1 <0>         0.1398
     38 H3          6.2656   -0.2543   -3.5434 H         1 <0>         0.1599
     39 H4          7.5861    2.1725    1.6211 H         1 <0>         0.0574
     40 H5          5.8975    1.7275    1.9104 H         1 <0>         0.0629
     41 H6          1.5141    1.8416   -2.1898 H         1 <0>         0.0614
     42 H7          0.2338    1.2823   -3.2521 H         1 <0>         0.0593
     43 H8         -0.7558   -0.3373   -0.0247 H         1 <0>         0.0841
     44 H9         -0.5517    1.0973    0.9692 H         1 <0>         0.0679
     45 H10         0.4403   -1.0236   -2.2568 H         1 <0>         0.0826
     46 H11         1.9618   -0.4554   -2.9487 H         1 <0>         0.0383
     47 H12         6.8300   -1.8717    2.8739 H         1 <0>         0.0556
     48 H13         5.4356   -0.8502    2.5290 H         1 <0>         0.0415
     49 H14         1.3456   -0.5214    1.1798 H         1 <0>         0.0851
     50 H15         7.1566    0.5367    3.5400 H         1 <0>         0.0639
     51 H16        -0.1781    2.5096   -0.8621 H         1 <0>         0.0584
     52 H17         9.2504    0.4995    1.5459 H         1 <0>         0.0401
     53 H18         9.3470    0.2082    3.2934 H         1 <0>         0.0440
     54 H19         8.9975   -1.1349    2.1879 H         1 <0>         0.0459
     55 H20        -2.0235    2.2384   -2.2752 H         1 <0>         0.0456
     56 H21        -1.9032    0.4682   -2.2772 H         1 <0>         0.0366
     57 H22        -2.4765    1.3170   -0.8283 H         1 <0>         0.0474
     58 H23         3.7485   -4.4232   -3.4647 H         1 <0>         0.0800
     59 H24         2.1002   -4.4168   -4.1006 H         1 <0>         0.0681
     60 H25         2.1309   -3.8309   -1.6847 H         1 <0>         0.0740
     61 H26         1.5011   -2.5046   -2.6534 H         1 <0>         0.0631
     62 H27         4.1172   -2.1361   -4.4443 H         1 <0>         0.0970
     63 H28         2.4527   -2.1471   -5.0499 H         1 <0>         0.0725
     64 H29         3.7902   -1.3903   -2.5956 H         1 <0>         0.0839
     65 H30         6.3115   -2.3985    0.6051 H         1 <0>         0.4531
     66 H31         4.5737   -4.4481   -8.3456 H         1 <0>         0.4798
     67 H32         4.7907   -2.9206   -9.1410 H         1 <0>         0.4881
     68 H33         3.7649   -0.8530   -6.3425 H         1 <0>         0.4801
     69 H34         4.3247   -0.8422   -7.9900 H         1 <0>         0.4806
     70 H35         3.7825   -4.4788   -6.0275 H         1 <0>         0.4689
     71 H36         4.5044   -3.3037   -0.4338 H         1 <0>         0.4505
     72 H37         3.6507    2.3888    0.1315 H         1 <0>         0.4443
@<TRIPOS>BOND
     1    1    2 ar
     2    1    3 ar
     3    2    4 ar
     4    3    6 ar
     5    4    5 ar
     6    4   10 1
     7    5    6 ar
     8    5   24 1
     9    6   35 1
    10    7   15 1
    11    7   30 2
    12    7   34 1
    13    8   23 1
    14    8   25 am
    15    8   31 2
    16    9   26 1
    17    9   27 1
    18    9   28 1
    19   10   16 1
    20   11   13 1
    21   11   17 1
    22   12   15 1
    23   12   17 1
    24   13   25 1
    25   14   16 1
    26   14   24 1
    27   15   25 1
    28   16   18 1
    29   17   19 1
    30   20   21 1
    31   20   22 1
    32   21   23 1
    33   22   28 1
    34   23   29 1
    35   29   35 1
    36   32   35 2
    37   33   35 2
    38    1   36 1
    39    2   37 1
    40    3   38 1
    41   10   39 1
    42   10   40 1
    43   11   41 1
    44   11   42 1
    45   12   43 1
    46   12   44 1
    47   13   45 1
    48   13   46 1
    49   14   47 1
    50   14   48 1
    51   15   49 1
    52   16   50 1
    53   17   51 1
    54   18   52 1
    55   18   53 1
    56   18   54 1
    57   19   55 1
    58   19   56 1
    59   19   57 1
    60   20   58 1
    61   20   59 1
    62   21   60 1
    63   21   61 1
    64   22   62 1
    65   22   63 1
    66   23   64 1
    67   24   65 1
    68   26   66 1
    69   26   67 1
    70   27   68 1
    71   27   69 1
    72   28   70 1
    73   29   71 1
    74   34   72 1
@<TRIPOS>MOLECULE
1dwc_ligand_156
   72    74     0     0     0
SMALL
USER_CHARGES

mmff94s_NoEstat = 78.56
@<TRIPOS>ATOM
      1 C1          3.0864   -6.8132   -1.6121 C.ar      1 <0>        -0.1945
      2 C2          2.0235   -6.9752   -0.7260 C.ar      1 <0>        -0.0294
      3 C3          3.0725   -5.7656   -2.5283 C.ar      1 <0>        -0.0143
      4 C4          0.9399   -6.0855   -0.7488 C.ar      1 <0>        -0.1552
      5 C5          0.9045   -5.0397   -1.6925 C.ar      1 <0>         0.3076
      6 C6          1.9909   -4.8841   -2.5656 C.ar      1 <0>        -0.4908
      7 C7          2.4038   -0.4910    2.4030 C.2       1 <0>         0.5994
      8 C8          2.9466   -1.3973   -0.6457 C.2       1 <0>         0.6462
      9 C9          6.2822    2.1931   -1.8793 C.cat     1 <0>         0.6305
     10 C10        -0.2069   -6.2806    0.2139 C.3       1 <0>        -0.0319
     11 C11         3.9178   -3.4419    2.3602 C.3       1 <0>        -0.0918
     12 C12         4.8012   -1.0545    2.5913 C.3       1 <0>        -0.0841
     13 C13         4.0430   -3.0960    0.8803 C.3       1 <0>         0.0870
     14 C14        -1.3613   -4.3977   -0.9727 C.3       1 <0>         0.2023
     15 C15         3.6790   -0.7248    1.6100 C.3       1 <0>         0.0778
     16 C16        -1.0112   -4.9842    0.3988 C.3       1 <0>        -0.0746
     17 C17         4.6242   -2.4243    3.2705 C.3       1 <0>        -0.0681
     18 C18        -2.2700   -5.2387    1.2234 C.3       1 <0>        -0.0944
     19 C19         5.9763   -2.9527    3.7531 C.3       1 <0>        -0.0918
     20 C20         5.7415   -1.0578   -1.6401 C.3       1 <0>        -0.1192
     21 C21         4.5564   -1.3488   -2.5679 C.3       1 <0>        -0.0916
     22 C22         6.8115   -0.2136   -2.3213 C.3       1 <0>         0.1883
     23 C23         3.4544   -2.1251   -1.8653 C.3       1 <0>         0.1952
     24 N1         -0.1556   -4.1426   -1.7381 N.pl3     1 <0>        -0.7670
     25 N2          3.5192   -1.7560    0.5781 N.am      1 <0>        -0.4509
     26 N3          5.7834    3.4227   -2.2967 N.pl3     1 <0>        -0.8477
     27 N4          6.7794    2.0667   -0.5867 N.pl3     1 <0>        -0.8633
     28 N5          6.2936    1.0837   -2.7315 N.pl3     1 <0>        -0.7419
     29 N6          2.2741   -2.2179   -2.7432 N.pl3     1 <0>        -0.8860
     30 O1          2.2729    0.3351    3.2940 O.2       1 <0>        -0.5199
     31 O2          2.0685   -0.5400   -0.7710 O.2       1 <0>        -0.6131
     32 O3          3.2466   -3.7694   -4.5546 O.2       1 <0>        -0.6576
     33 O4          0.7526   -3.5048   -4.3692 O.2       1 <0>        -0.6482
     34 O5          1.4223   -1.3294    1.9894 O.3       1 <0>        -0.6303
     35 S1          2.0591   -3.5786   -3.7438 S.o2      1 <0>         1.5193
     36 H1          3.9266   -7.5016   -1.5854 H         1 <0>         0.1426
     37 H2          2.0443   -7.7948   -0.0116 H         1 <0>         0.1398
     38 H3          3.8977   -5.6260   -3.2193 H         1 <0>         0.1599
     39 H4         -0.8529   -7.0772   -0.1766 H         1 <0>         0.0574
     40 H5          0.1751   -6.6074    1.1889 H         1 <0>         0.0629
     41 H6          2.8510   -3.4591    2.6203 H         1 <0>         0.0614
     42 H7          4.2939   -4.4553    2.5428 H         1 <0>         0.0593
     43 H8          5.7524   -1.0436    2.0413 H         1 <0>         0.0841
     44 H9          4.8832   -0.2779    3.3625 H         1 <0>         0.0679
     45 H10         5.0934   -3.1114    0.5668 H         1 <0>         0.0826
     46 H11         3.5122   -3.8428    0.2819 H         1 <0>         0.0383
     47 H12        -2.0084   -5.0849   -1.5319 H         1 <0>         0.0556
     48 H13        -1.9126   -3.4583   -0.8533 H         1 <0>         0.0415
     49 H14         3.9015    0.2290    1.1168 H         1 <0>         0.0851
     50 H15        -0.3913   -4.2593    0.9436 H         1 <0>         0.0639
     51 H16         4.0032   -2.2947    4.1661 H         1 <0>         0.0584
     52 H17        -2.7070   -4.2936    1.5593 H         1 <0>         0.0401
     53 H18        -3.0178   -5.7721    0.6290 H         1 <0>         0.0440
     54 H19        -2.0361   -5.8426    2.1053 H         1 <0>         0.0459
     55 H20         5.8782   -3.4157    4.7396 H         1 <0>         0.0456
     56 H21         6.3665   -3.7022    3.0580 H         1 <0>         0.0366
     57 H22         6.7034   -2.1384    3.8257 H         1 <0>         0.0474
     58 H23         5.3842   -0.5386   -0.7426 H         1 <0>         0.0800
     59 H24         6.1956   -2.0004   -1.3135 H         1 <0>         0.0681
     60 H25         4.9119   -1.8947   -3.4517 H         1 <0>         0.0740
     61 H26         4.1396   -0.4017   -2.9334 H         1 <0>         0.0631
     62 H27         7.2104   -0.7195   -3.2063 H         1 <0>         0.0970
     63 H28         7.6418   -0.0344   -1.6309 H         1 <0>         0.0725
     64 H29         3.7703   -3.1244   -1.5692 H         1 <0>         0.0839
     65 H30        -0.1728   -3.4550   -2.4811 H         1 <0>         0.4531
     66 H31         5.4119    3.5624   -3.2326 H         1 <0>         0.4798
     67 H32         5.7794    4.2246   -1.6707 H         1 <0>         0.4881
     68 H33         7.1515    1.1824   -0.2491 H         1 <0>         0.4801
     69 H34         6.7829    2.8555    0.0556 H         1 <0>         0.4806
     70 H35         5.9218    1.2075   -3.6745 H         1 <0>         0.4689
     71 H36         1.4502   -1.6870   -2.4414 H         1 <0>         0.4505
     72 H37         0.5902   -1.1952    2.4913 H         1 <0>         0.4443
@<TRIPOS>BOND
     1    1    2 ar
     2    1    3 ar
     3    2    4 ar
     4    3    6 ar
     5    4    5 ar
     6    4   10 1
     7    5    6 ar
     8    5   24 1
     9    6   35 1
    10    7   15 1
    11    7   30 2
    12    7   34 1
    13    8   23 1
    14    8   25 am
    15    8   31 2
    16    9   26 1
    17    9   27 1
    18    9   28 1
    19   10   16 1
    20   11   13 1
    21   11   17 1
    22   12   15 1
    23   12   17 1
    24   13   25 1
    25   14   16 1
    26   14   24 1
    27   15   25 1
    28   16   18 1
    29   17   19 1
    30   20   21 1
    31   20   22 1
    32   21   23 1
    33   22   28 1
    34   23   29 1
    35   29   35 1
    36   32   35 2
    37   33   35 2
    38    1   36 1
    39    2   37 1
    40    3   38 1
    41   10   39 1
    42   10   40 1
    43   11   41 1
    44   11   42 1
    45   12   43 1
    46   12   44 1
    47   13   45 1
    48   13   46 1
    49   14   47 1
    50   14   48 1
    51   15   49 1
    52   16   50 1
    53   17   51 1
    54   18   52 1
    55   18   53 1
    56   18   54 1
    57   19   55 1
    58   19   56 1
    59   19   57 1
    60   20   58 1
    61   20   59 1
    62   21   60 1
    63   21   61 1
    64   22   62 1
    65   22   63 1
    66   23   64 1
    67   24   65 1
    68   26   66 1
    69   26   67 1
    70   27   68 1
    71   27   69 1
    72   28   70 1
    73   29   71 1
    74   34   72 1
@<TRIPOS>MOLECULE
1dwc_ligand_157
   72    74     0     0     0
SMALL
USER_CHARGES

mmff94s_NoEstat = 78.59
@<TRIPOS>ATOM
      1 C1         -3.3475   -6.3503    1.8791 C.ar      1 <0>        -0.1945
      2 C2         -3.9958   -5.9344    0.7180 C.ar      1 <0>        -0.0294
      3 C3         -2.9512   -5.4113    2.8268 C.ar      1 <0>        -0.0143
      4 C4         -4.2554   -4.5738    0.4999 C.ar      1 <0>        -0.1552
      5 C5         -3.8316   -3.6142    1.4408 C.ar      1 <0>         0.3076
      6 C6         -3.1944   -4.0540    2.6102 C.ar      1 <0>        -0.4908
      7 C7          1.4392   -0.8453    6.5401 C.2       1 <0>         0.5994
      8 C8          0.8654   -1.4427    3.2413 C.2       1 <0>         0.6462
      9 C9         -0.6326   -5.9229   -1.4626 C.cat     1 <0>         0.6305
     10 C10        -4.9524   -4.1403   -0.7675 C.3       1 <0>        -0.0319
     11 C11        -0.2133    1.8495    4.4716 C.3       1 <0>        -0.0918
     12 C12        -0.7971    0.1467    6.2113 C.3       1 <0>        -0.0841
     13 C13         0.8705    0.9213    3.9384 C.3       1 <0>         0.0870
     14 C14        -4.5641   -1.7769   -0.0261 C.3       1 <0>         0.2023
     15 C15         0.2315   -0.8195    5.6178 C.3       1 <0>         0.0778
     16 C16        -5.5921   -2.7519   -0.6095 C.3       1 <0>        -0.0746
     17 C17        -0.4444    1.6202    5.9675 C.3       1 <0>        -0.0681
     18 C18        -6.1301   -2.2464   -1.9453 C.3       1 <0>        -0.0944
     19 C19        -1.5476    2.5365    6.4932 C.3       1 <0>        -0.0918
     20 C20         0.0249   -2.8727    0.7002 C.3       1 <0>        -0.1192
     21 C21         0.3004   -3.5693    2.0376 C.3       1 <0>        -0.0916
     22 C22         0.2602   -3.7963   -0.4886 C.3       1 <0>         0.1883
     23 C23        -0.0078   -2.6730    3.2260 C.3       1 <0>         0.1952
     24 N1         -4.0757   -2.2595    1.2518 N.pl3     1 <0>        -0.7670
     25 N2          0.5923   -0.4892    4.2287 N.am      1 <0>        -0.4509
     26 N3         -1.4804   -7.0239   -1.4014 N.pl3     1 <0>        -0.8477
     27 N4          0.2178   -5.7819   -2.5539 N.pl3     1 <0>        -0.8633
     28 N5         -0.6182   -4.9567   -0.4508 N.pl3     1 <0>        -0.7419
     29 N6         -1.3760   -2.1385    3.1042 N.pl3     1 <0>        -0.8860
     30 O1          2.4397   -0.1566    6.4056 O.2       1 <0>        -0.5199
     31 O2          1.7588   -1.3297    2.3975 O.2       1 <0>        -0.6131
     32 O3         -3.7495   -1.9880    4.0928 O.2       1 <0>        -0.6576
     33 O4         -2.1627   -3.7355    4.9602 O.2       1 <0>        -0.6482
     34 O5          1.2594   -1.7432    7.5394 O.3       1 <0>        -0.6303
     35 S1         -2.6746   -2.9347    3.8647 S.o2      1 <0>         1.5193
     36 H1         -3.1550   -7.4065    2.0458 H         1 <0>         0.1426
     37 H2         -4.3045   -6.6753   -0.0157 H         1 <0>         0.1398
     38 H3         -2.4509   -5.7242    3.7377 H         1 <0>         0.1599
     39 H4         -4.2148   -4.1296   -1.5800 H         1 <0>         0.0574
     40 H5         -5.7315   -4.8656   -1.0323 H         1 <0>         0.0629
     41 H6          0.0752    2.8917    4.2907 H         1 <0>         0.0614
     42 H7         -1.1467    1.6735    3.9216 H         1 <0>         0.0593
     43 H8         -1.7726   -0.0612    5.7506 H         1 <0>         0.0841
     44 H9         -0.9156   -0.0310    7.2877 H         1 <0>         0.0679
     45 H10         0.9823    1.0763    2.8603 H         1 <0>         0.0826
     46 H11         1.8372    1.1600    4.3982 H         1 <0>         0.0383
     47 H12        -3.7191   -1.6505   -0.7142 H         1 <0>         0.0556
     48 H13        -5.0170   -0.7893    0.1158 H         1 <0>         0.0415
     49 H14        -0.1847   -1.8312    5.6559 H         1 <0>         0.0851
     50 H15        -6.4375   -2.8304    0.0874 H         1 <0>         0.0639
     51 H16         0.4759    1.8650    6.5120 H         1 <0>         0.0584
     52 H17        -6.7909   -1.3877   -1.7933 H         1 <0>         0.0401
     53 H18        -5.3086   -1.9377   -2.5987 H         1 <0>         0.0440
     54 H19        -6.6976   -3.0320   -2.4531 H         1 <0>         0.0459
     55 H20        -2.3332    1.9515    6.9808 H         1 <0>         0.0456
     56 H21        -1.1437    3.2458    7.2218 H         1 <0>         0.0366
     57 H22        -1.9990    3.1037    5.6737 H         1 <0>         0.0474
     58 H23        -1.0105   -2.5120    0.6824 H         1 <0>         0.0800
     59 H24         0.6776   -1.9980    0.5976 H         1 <0>         0.0681
     60 H25         1.3460   -3.9033    2.0652 H         1 <0>         0.0740
     61 H26        -0.3175   -4.4733    2.1109 H         1 <0>         0.0631
     62 H27         1.2957   -4.1503   -0.5157 H         1 <0>         0.0970
     63 H28         0.0608   -3.2615   -1.4226 H         1 <0>         0.0725
     64 H29         0.1003   -3.1895    4.1787 H         1 <0>         0.0839
     65 H30        -3.6865   -1.6028    1.9171 H         1 <0>         0.4531
     66 H31        -2.1173   -7.1693   -0.6226 H         1 <0>         0.4798
     67 H32        -1.4841   -7.7223   -2.1412 H         1 <0>         0.4881
     68 H33         0.8505   -4.9892   -2.6303 H         1 <0>         0.4801
     69 H34         0.2286   -6.4677   -3.3050 H         1 <0>         0.4806
     70 H35        -1.2539   -5.0876    0.3375 H         1 <0>         0.4689
     71 H36        -1.4476   -1.1318    2.9219 H         1 <0>         0.4505
     72 H37         2.0301   -1.7762    8.1454 H         1 <0>         0.4443
@<TRIPOS>BOND
     1    1    2 ar
     2    1    3 ar
     3    2    4 ar
     4    3    6 ar
     5    4    5 ar
     6    4   10 1
     7    5    6 ar
     8    5   24 1
     9    6   35 1
    10    7   15 1
    11    7   30 2
    12    7   34 1
    13    8   23 1
    14    8   25 am
    15    8   31 2
    16    9   26 1
    17    9   27 1
    18    9   28 1
    19   10   16 1
    20   11   13 1
    21   11   17 1
    22   12   15 1
    23   12   17 1
    24   13   25 1
    25   14   16 1
    26   14   24 1
    27   15   25 1
    28   16   18 1
    29   17   19 1
    30   20   21 1
    31   20   22 1
    32   21   23 1
    33   22   28 1
    34   23   29 1
    35   29   35 1
    36   32   35 2
    37   33   35 2
    38    1   36 1
    39    2   37 1
    40    3   38 1
    41   10   39 1
    42   10   40 1
    43   11   41 1
    44   11   42 1
    45   12   43 1
    46   12   44 1
    47   13   45 1
    48   13   46 1
    49   14   47 1
    50   14   48 1
    51   15   49 1
    52   16   50 1
    53   17   51 1
    54   18   52 1
    55   18   53 1
    56   18   54 1
    57   19   55 1
    58   19   56 1
    59   19   57 1
    60   20   58 1
    61   20   59 1
    62   21   60 1
    63   21   61 1
    64   22   62 1
    65   22   63 1
    66   23   64 1
    67   24   65 1
    68   26   66 1
    69   26   67 1
    70   27   68 1
    71   27   69 1
    72   28   70 1
    73   29   71 1
    74   34   72 1
@<TRIPOS>MOLECULE
1dwc_ligand_158
   72    74     0     0     0
SMALL
USER_CHARGES

mmff94s_NoEstat = 78.60
@<TRIPOS>ATOM
      1 C1          0.2729   -5.6236   -0.4407 C.ar      1 <0>        -0.1945
      2 C2         -0.6484   -6.6112   -0.0987 C.ar      1 <0>        -0.0294
      3 C3          1.0504   -5.0282    0.5480 C.ar      1 <0>        -0.0143
      4 C4         -0.8004   -7.0071    1.2380 C.ar      1 <0>        -0.1552
      5 C5          0.0031   -6.4297    2.2408 C.ar      1 <0>         0.3076
      6 C6          0.9136   -5.4263    1.8789 C.ar      1 <0>        -0.4908
      7 C7         -0.2549    0.4306    0.6330 C.2       1 <0>         0.5994
      8 C8          0.8654   -1.4427    3.2413 C.2       1 <0>         0.6462
      9 C9         -5.3792    0.5120    4.1450 C.cat     1 <0>         0.6305
     10 C10        -1.7983   -8.0848    1.5877 C.3       1 <0>        -0.0319
     11 C11         3.3665   -0.6443    0.6676 C.3       1 <0>        -0.0918
     12 C12         1.2181   -1.2005   -0.4907 C.3       1 <0>        -0.0841
     13 C13         2.5847   -0.2704    1.9206 C.3       1 <0>         0.0870
     14 C14        -0.9225   -7.9557    3.9392 C.3       1 <0>         0.2023
     15 C15         0.4427   -0.9096    0.7969 C.3       1 <0>         0.0778
     16 C16        -2.1834   -8.0707    3.0760 C.3       1 <0>        -0.0746
     17 C17         2.5288   -0.4088   -0.5919 C.3       1 <0>        -0.0681
     18 C18        -3.1963   -6.9649    3.3941 C.3       1 <0>        -0.0944
     19 C19         3.3078   -0.8065   -1.8442 C.3       1 <0>        -0.0918
     20 C20        -2.1115   -1.2711    3.3990 C.3       1 <0>        -0.1192
     21 C21        -1.3133   -2.4479    3.9716 C.3       1 <0>        -0.0916
     22 C22        -3.3821   -0.9970    4.1941 C.3       1 <0>         0.1883
     23 C23        -0.0078   -2.6730    3.2260 C.3       1 <0>         0.1952
     24 N1         -0.1305   -6.7964    3.5741 N.pl3     1 <0>        -0.7670
     25 N2          1.2915   -0.9578    1.9994 N.am      1 <0>        -0.4509
     26 N3         -6.0873    1.5705    3.5854 N.pl3     1 <0>        -0.8477
     27 N4         -5.9120   -0.1549    5.2429 N.pl3     1 <0>        -0.8633
     28 N5         -4.1449    0.1056    3.6268 N.pl3     1 <0>        -0.7419
     29 N6          0.7961   -3.6905    3.9267 N.pl3     1 <0>        -0.8860
     30 O1         -1.0223    0.7161   -0.2742 O.2       1 <0>        -0.5199
     31 O2          1.1650   -0.9321    4.3240 O.2       1 <0>        -0.6131
     32 O3          2.4834   -5.6363    3.9445 O.2       1 <0>        -0.6576
     33 O4          2.8151   -3.7334    2.3342 O.2       1 <0>        -0.6482
     34 O5          0.0918    1.2764    1.6339 O.3       1 <0>        -0.6303
     35 S1          1.9328   -4.6215    3.0666 S.o2      1 <0>         1.5193
     36 H1          0.3819   -5.3163   -1.4773 H         1 <0>         0.1426
     37 H2         -1.2538   -7.0689   -0.8775 H         1 <0>         0.1398
     38 H3          1.7672   -4.2535    0.2943 H         1 <0>         0.1599
     39 H4         -2.7011   -7.9788    0.9739 H         1 <0>         0.0574
     40 H5         -1.3433   -9.0529    1.3421 H         1 <0>         0.0629
     41 H6          4.2893   -0.0541    0.6219 H         1 <0>         0.0614
     42 H7          3.6617   -1.6999    0.7239 H         1 <0>         0.0593
     43 H8          1.4535   -2.2733   -0.5175 H         1 <0>         0.0841
     44 H9          0.5944   -0.9953   -1.3701 H         1 <0>         0.0679
     45 H10         3.1909   -0.4908    2.8053 H         1 <0>         0.0826
     46 H11         2.3782    0.8066    1.9340 H         1 <0>         0.0383
     47 H12        -1.1905   -7.8906    4.9997 H         1 <0>         0.0556
     48 H13        -0.3087   -8.8568    3.8183 H         1 <0>         0.0415
     49 H14        -0.3616   -1.6465    0.8882 H         1 <0>         0.0851
     50 H15        -2.6797   -9.0207    3.3097 H         1 <0>         0.0639
     51 H16         2.2982    0.6607   -0.6719 H         1 <0>         0.0584
     52 H17        -3.3457   -6.3186    2.5240 H         1 <0>         0.0401
     53 H18        -4.1623   -7.3968    3.6724 H         1 <0>         0.0440
     54 H19        -2.8427   -6.3474    4.2251 H         1 <0>         0.0459
     55 H20         2.6382   -1.2449   -2.5902 H         1 <0>         0.0456
     56 H21         3.7937    0.0674   -2.2885 H         1 <0>         0.0366
     57 H22         4.0794   -1.5424   -1.5992 H         1 <0>         0.0474
     58 H23        -1.4838   -0.3719    3.3933 H         1 <0>         0.0800
     59 H24        -2.3885   -1.4831    2.3599 H         1 <0>         0.0681
     60 H25        -1.9335   -3.3536    3.9489 H         1 <0>         0.0740
     61 H26        -1.0849   -2.2531    5.0271 H         1 <0>         0.0631
     62 H27        -3.1519   -0.7547    5.2365 H         1 <0>         0.0970
     63 H28        -4.0259   -1.8823    4.1866 H         1 <0>         0.0725
     64 H29        -0.1638   -2.9774    2.1921 H         1 <0>         0.0839
     65 H30         0.5206   -6.4083    4.2456 H         1 <0>         0.4531
     66 H31        -5.7362    2.0880    2.7841 H         1 <0>         0.4798
     67 H32        -6.9840    1.8599    3.9689 H         1 <0>         0.4881
     68 H33        -5.4209   -0.9328    5.6766 H         1 <0>         0.4801
     69 H34        -6.8078    0.1174    5.6406 H         1 <0>         0.4806
     70 H35        -3.7797    0.6144    2.8203 H         1 <0>         0.4689
     71 H36         0.9382   -3.5340    4.9302 H         1 <0>         0.4505
     72 H37        -0.3474    2.1490    1.5448 H         1 <0>         0.4443
@<TRIPOS>BOND
     1    1    2 ar
     2    1    3 ar
     3    2    4 ar
     4    3    6 ar
     5    4    5 ar
     6    4   10 1
     7    5    6 ar
     8    5   24 1
     9    6   35 1
    10    7   15 1
    11    7   30 2
    12    7   34 1
    13    8   23 1
    14    8   25 am
    15    8   31 2
    16    9   26 1
    17    9   27 1
    18    9   28 1
    19   10   16 1
    20   11   13 1
    21   11   17 1
    22   12   15 1
    23   12   17 1
    24   13   25 1
    25   14   16 1
    26   14   24 1
    27   15   25 1
    28   16   18 1
    29   17   19 1
    30   20   21 1
    31   20   22 1
    32   21   23 1
    33   22   28 1
    34   23   29 1
    35   29   35 1
    36   32   35 2
    37   33   35 2
    38    1   36 1
    39    2   37 1
    40    3   38 1
    41   10   39 1
    42   10   40 1
    43   11   41 1
    44   11   42 1
    45   12   43 1
    46   12   44 1
    47   13   45 1
    48   13   46 1
    49   14   47 1
    50   14   48 1
    51   15   49 1
    52   16   50 1
    53   17   51 1
    54   18   52 1
    55   18   53 1
    56   18   54 1
    57   19   55 1
    58   19   56 1
    59   19   57 1
    60   20   58 1
    61   20   59 1
    62   21   60 1
    63   21   61 1
    64   22   62 1
    65   22   63 1
    66   23   64 1
    67   24   65 1
    68   26   66 1
    69   26   67 1
    70   27   68 1
    71   27   69 1
    72   28   70 1
    73   29   71 1
    74   34   72 1
@<TRIPOS>MOLECULE
1dwc_ligand_159
   72    74     0     0     0
SMALL
USER_CHARGES

mmff94s_NoEstat = 78.64
@<TRIPOS>ATOM
      1 C1         -2.1552   -6.8769    3.3635 C.ar      1 <0>        -0.1945
      2 C2         -2.5157   -7.0906    2.0347 C.ar      1 <0>        -0.0294
      3 C3         -2.2108   -5.5938    3.8998 C.ar      1 <0>        -0.0143
      4 C4         -2.9386   -6.0198    1.2342 C.ar      1 <0>        -0.1552
      5 C5         -2.9700   -4.7133    1.7612 C.ar      1 <0>         0.3076
      6 C6         -2.6182   -4.5211    3.1051 C.ar      1 <0>        -0.4908
      7 C7          1.8094   -2.2220    6.4146 C.2       1 <0>         0.5994
      8 C8          0.8654   -1.4427    3.2413 C.2       1 <0>         0.6462
      9 C9          1.5497   -7.0495    4.2712 C.cat     1 <0>         0.6305
     10 C10        -3.3185   -6.2686   -0.2059 C.3       1 <0>        -0.0319
     11 C11         1.3547    1.4153    5.5015 C.3       1 <0>        -0.0918
     12 C12         0.1935   -0.3932    6.7850 C.3       1 <0>        -0.0841
     13 C13         1.9116    0.3681    4.5455 C.3       1 <0>         0.0870
     14 C14        -3.5741   -3.7853   -0.4384 C.3       1 <0>         0.2023
     15 C15         0.6811   -1.4322    5.7719 C.3       1 <0>         0.0778
     16 C16        -4.2102   -5.1431   -0.7536 C.3       1 <0>        -0.0746
     17 C17         1.1262    0.8207    6.8935 C.3       1 <0>        -0.0681
     18 C18        -4.4335   -5.3085   -2.2543 C.3       1 <0>        -0.0944
     19 C19         0.5462    1.8676    7.8426 C.3       1 <0>        -0.0918
     20 C20         1.7689   -4.0083    2.0091 C.3       1 <0>        -0.1192
     21 C21         0.3004   -3.5693    2.0376 C.3       1 <0>        -0.0916
     22 C22         2.1396   -4.8550    3.2204 C.3       1 <0>         0.1883
     23 C23        -0.0078   -2.6730    3.2260 C.3       1 <0>         0.1952
     24 N1         -3.3855   -3.6334    0.9920 N.pl3     1 <0>        -0.7670
     25 N2          1.0754   -0.8353    4.4846 N.am      1 <0>        -0.4509
     26 N3          0.7843   -8.2104    4.3089 N.pl3     1 <0>        -0.8477
     27 N4          2.5289   -6.8514    5.2386 N.pl3     1 <0>        -0.8633
     28 N5          1.3547   -6.0796    3.2820 N.pl3     1 <0>        -0.7419
     29 N6         -1.3760   -2.1385    3.1042 N.pl3     1 <0>        -0.8860
     30 O1          1.7298   -2.8226    7.4759 O.2       1 <0>        -0.5199
     31 O2          1.3411   -1.0305    2.1799 O.2       1 <0>        -0.6131
     32 O3         -3.9192   -2.2979    3.4785 O.2       1 <0>        -0.6576
     33 O4         -2.3570   -3.1258    5.2669 O.2       1 <0>        -0.6482
     34 O5          2.9269   -2.1697    5.6492 O.3       1 <0>        -0.6303
     35 S1         -2.6746   -2.9347    3.8647 S.o2      1 <0>         1.5193
     36 H1         -1.8347   -7.7114    3.9810 H         1 <0>         0.1426
     37 H2         -2.4720   -8.0969    1.6249 H         1 <0>         0.1398
     38 H3         -1.9383   -5.4164    4.9353 H         1 <0>         0.1599
     39 H4         -2.3970   -6.3462   -0.7968 H         1 <0>         0.0574
     40 H5         -3.8526   -7.2228   -0.2920 H         1 <0>         0.0629
     41 H6          2.0492    2.2615    5.5629 H         1 <0>         0.0614
     42 H7          0.4079    1.8038    5.1048 H         1 <0>         0.0593
     43 H8         -0.8003   -0.0449    6.4717 H         1 <0>         0.0841
     44 H9          0.0668   -0.8506    7.7745 H         1 <0>         0.0679
     45 H10         2.0225    0.8091    3.5494 H         1 <0>         0.0826
     46 H11         2.9105    0.0502    4.8680 H         1 <0>         0.0383
     47 H12        -2.6062   -3.6862   -0.9454 H         1 <0>         0.0556
     48 H13        -4.2146   -2.9737   -0.8012 H         1 <0>         0.0415
     49 H14        -0.1232   -2.1562    5.6073 H         1 <0>         0.0851
     50 H15        -5.1893   -5.1964   -0.2584 H         1 <0>         0.0639
     51 H16         2.0901    0.4983    7.3061 H         1 <0>         0.0584
     52 H17        -5.2505   -4.6651   -2.5945 H         1 <0>         0.0401
     53 H18        -3.5296   -5.0402   -2.8094 H         1 <0>         0.0440
     54 H19        -4.6894   -6.3451   -2.4928 H         1 <0>         0.0459
     55 H20        -0.3870    1.5087    8.2868 H         1 <0>         0.0456
     56 H21         1.2507    2.0862    8.6507 H         1 <0>         0.0366
     57 H22         0.3370    2.7982    7.3067 H         1 <0>         0.0474
     58 H23         1.9621   -4.5788    1.0926 H         1 <0>         0.0800
     59 H24         2.4183   -3.1256    1.9878 H         1 <0>         0.0681
     60 H25        -0.3448   -4.4577    2.0448 H         1 <0>         0.0740
     61 H26         0.0666   -3.0218    1.1158 H         1 <0>         0.0631
     62 H27         1.9858   -4.3013    4.1521 H         1 <0>         0.0970
     63 H28         3.1948   -5.1415    3.1673 H         1 <0>         0.0725
     64 H29         0.1003   -3.1895    4.1787 H         1 <0>         0.0839
     65 H30        -3.3193   -2.7048    1.3903 H         1 <0>         0.4531
     66 H31         0.0565   -8.3968    3.6242 H         1 <0>         0.4798
     67 H32         0.9323   -8.9105    5.0322 H         1 <0>         0.4881
     68 H33         3.1063   -6.0140    5.2405 H         1 <0>         0.4801
     69 H34         2.6942   -7.5396    5.9692 H         1 <0>         0.4806
     70 H35         0.6284   -6.2533    2.5856 H         1 <0>         0.4689
     71 H36        -1.4476   -1.1318    2.9219 H         1 <0>         0.4505
     72 H37         3.6684   -2.6727    6.0486 H         1 <0>         0.4443
@<TRIPOS>BOND
     1    1    2 ar
     2    1    3 ar
     3    2    4 ar
     4    3    6 ar
     5    4    5 ar
     6    4   10 1
     7    5    6 ar
     8    5   24 1
     9    6   35 1
    10    7   15 1
    11    7   30 2
    12    7   34 1
    13    8   23 1
    14    8   25 am
    15    8   31 2
    16    9   26 1
    17    9   27 1
    18    9   28 1
    19   10   16 1
    20   11   13 1
    21   11   17 1
    22   12   15 1
    23   12   17 1
    24   13   25 1
    25   14   16 1
    26   14   24 1
    27   15   25 1
    28   16   18 1
    29   17   19 1
    30   20   21 1
    31   20   22 1
    32   21   23 1
    33   22   28 1
    34   23   29 1
    35   29   35 1
    36   32   35 2
    37   33   35 2
    38    1   36 1
    39    2   37 1
    40    3   38 1
    41   10   39 1
    42   10   40 1
    43   11   41 1
    44   11   42 1
    45   12   43 1
    46   12   44 1
    47   13   45 1
    48   13   46 1
    49   14   47 1
    50   14   48 1
    51   15   49 1
    52   16   50 1
    53   17   51 1
    54   18   52 1
    55   18   53 1
    56   18   54 1
    57   19   55 1
    58   19   56 1
    59   19   57 1
    60   20   58 1
    61   20   59 1
    62   21   60 1
    63   21   61 1
    64   22   62 1
    65   22   63 1
    66   23   64 1
    67   24   65 1
    68   26   66 1
    69   26   67 1
    70   27   68 1
    71   27   69 1
    72   28   70 1
    73   29   71 1
    74   34   72 1
@<TRIPOS>MOLECULE
1dwc_ligand_160
   72    74     0     0     0
SMALL
USER_CHARGES

mmff94s_NoEstat = 78.64
@<TRIPOS>ATOM
      1 C1         -3.2095   -6.3111    4.0319 C.ar      1 <0>        -0.1945
      2 C2         -4.3494   -6.3756    3.2333 C.ar      1 <0>        -0.0294
      3 C3         -2.6618   -5.0747    4.3608 C.ar      1 <0>        -0.0143
      4 C4         -4.9515   -5.2005    2.7615 C.ar      1 <0>        -0.1552
      5 C5         -4.3866   -3.9460    3.0659 C.ar      1 <0>         0.3076
      6 C6         -3.2482   -3.9013    3.8837 C.ar      1 <0>        -0.4908
      7 C7          3.7233   -2.4449    4.7893 C.2       1 <0>         0.5994
      8 C8          0.8654   -1.4427    3.2413 C.2       1 <0>         0.6462
      9 C9          2.1577   -4.6267   -1.7165 C.cat     1 <0>         0.6305
     10 C10        -6.1822   -5.2895    1.8910 C.3       1 <0>        -0.0319
     11 C11         1.7658    0.4222    6.2790 C.3       1 <0>        -0.0918
     12 C12         2.2228   -2.0030    6.6989 C.3       1 <0>        -0.0841
     13 C13         1.9003    0.1799    4.7810 C.3       1 <0>         0.0870
     14 C14        -6.0218   -2.8018    1.6233 C.3       1 <0>         0.2023
     15 C15         2.2690   -2.2605    5.1905 C.3       1 <0>         0.0778
     16 C16        -6.9723   -3.9714    1.8997 C.3       1 <0>        -0.0746
     17 C17         2.6202   -0.5689    7.0736 C.3       1 <0>        -0.0681
     18 C18        -8.1050   -4.0102    0.8775 C.3       1 <0>        -0.0944
     19 C19         2.4647   -0.3375    8.5754 C.3       1 <0>        -0.0918
     20 C20         1.7689   -4.0083    2.0091 C.3       1 <0>        -0.1192
     21 C21         0.3004   -3.5693    2.0376 C.3       1 <0>        -0.0916
     22 C22         2.0958   -4.8429    0.7769 C.3       1 <0>         0.1883
     23 C23        -0.0078   -2.6730    3.2260 C.3       1 <0>         0.1952
     24 N1         -4.9617   -2.7650    2.6130 N.pl3     1 <0>        -0.7670
     25 N2          1.5999   -1.2067    4.4091 N.am      1 <0>        -0.4509
     26 N3          1.9356   -3.8927   -2.8771 N.pl3     1 <0>        -0.8477
     27 N4          2.6719   -5.9149   -1.8171 N.pl3     1 <0>        -0.8633
     28 N5          1.8751   -4.0962   -0.4532 N.pl3     1 <0>        -0.7419
     29 N6         -1.3760   -2.1385    3.1042 N.pl3     1 <0>        -0.8860
     30 O1          4.4523   -1.5599    4.3665 O.2       1 <0>        -0.5199
     31 O2          0.8891   -0.7105    2.2483 O.2       1 <0>        -0.6131
     32 O3         -3.5166   -1.3454    4.2968 O.2       1 <0>        -0.6576
     33 O4         -1.7865   -2.6277    5.5955 O.2       1 <0>        -0.6482
     34 O5          4.1079   -3.7331    4.9617 O.3       1 <0>        -0.6303
     35 S1         -2.5018   -2.3799    4.3583 S.o2      1 <0>         1.5193
     36 H1         -2.7511   -7.2247    4.4003 H         1 <0>         0.1426
     37 H2         -4.7722   -7.3459    2.9838 H         1 <0>         0.1398
     38 H3         -1.7777   -5.0119    4.9872 H         1 <0>         0.1599
     39 H4         -5.8649   -5.5367    0.8700 H         1 <0>         0.0574
     40 H5         -6.8323   -6.0992    2.2447 H         1 <0>         0.0629
     41 H6          2.0669    1.4503    6.5123 H         1 <0>         0.0614
     42 H7          0.7128    0.3207    6.5714 H         1 <0>         0.0593
     43 H8          1.1978   -2.1858    7.0494 H         1 <0>         0.0841
     44 H9          2.8666   -2.7151    7.2306 H         1 <0>         0.0679
     45 H10         1.2456    0.8722    4.2416 H         1 <0>         0.0826
     46 H11         2.9258    0.3867    4.4518 H         1 <0>         0.0383
     47 H12        -5.5819   -2.8910    0.6223 H         1 <0>         0.0556
     48 H13        -6.5698   -1.8534    1.6532 H         1 <0>         0.0415
     49 H14         1.7884   -3.2235    4.9909 H         1 <0>         0.0851
     50 H15        -7.4189   -3.8345    2.8938 H         1 <0>         0.0639
     51 H16         3.6763   -0.4106    6.8224 H         1 <0>         0.0584
     52 H17        -8.8065   -3.1885    1.0498 H         1 <0>         0.0401
     53 H18        -7.7094   -3.9182   -0.1385 H         1 <0>         0.0440
     54 H19        -8.6550   -4.9533    0.9490 H         1 <0>         0.0459
     55 H20         2.1532   -1.2591    9.0761 H         1 <0>         0.0456
     56 H21         3.4121   -0.0103    9.0142 H         1 <0>         0.0366
     57 H22         1.7112    0.4316    8.7697 H         1 <0>         0.0474
     58 H23         2.4156   -3.1229    2.0318 H         1 <0>         0.0800
     59 H24         1.9949   -4.6013    2.9028 H         1 <0>         0.0681
     60 H25        -0.3448   -4.4577    2.0448 H         1 <0>         0.0740
     61 H26         0.0666   -3.0218    1.1158 H         1 <0>         0.0631
     62 H27         1.4860   -5.7513    0.7413 H         1 <0>         0.0970
     63 H28         3.1484   -5.1425    0.7970 H         1 <0>         0.0725
     64 H29         0.1003   -3.1895    4.1787 H         1 <0>         0.0839
     65 H30        -4.4783   -1.8939    2.7937 H         1 <0>         0.4531
     66 H31         1.5595   -2.9487   -2.8523 H         1 <0>         0.4798
     67 H32         2.1433   -4.2863   -3.7920 H         1 <0>         0.4881
     68 H33         2.8463   -6.4791   -0.9889 H         1 <0>         0.4801
     69 H34         2.8881   -6.3264   -2.7218 H         1 <0>         0.4806
     70 H35         1.4985   -3.1480   -0.4116 H         1 <0>         0.4689
     71 H36        -1.4850   -1.3266    2.4871 H         1 <0>         0.4505
     72 H37         5.0446   -3.8732    4.7061 H         1 <0>         0.4443
@<TRIPOS>BOND
     1    1    2 ar
     2    1    3 ar
     3    2    4 ar
     4    3    6 ar
     5    4    5 ar
     6    4   10 1
     7    5    6 ar
     8    5   24 1
     9    6   35 1
    10    7   15 1
    11    7   30 2
    12    7   34 1
    13    8   23 1
    14    8   25 am
    15    8   31 2
    16    9   26 1
    17    9   27 1
    18    9   28 1
    19   10   16 1
    20   11   13 1
    21   11   17 1
    22   12   15 1
    23   12   17 1
    24   13   25 1
    25   14   16 1
    26   14   24 1
    27   15   25 1
    28   16   18 1
    29   17   19 1
    30   20   21 1
    31   20   22 1
    32   21   23 1
    33   22   28 1
    34   23   29 1
    35   29   35 1
    36   32   35 2
    37   33   35 2
    38    1   36 1
    39    2   37 1
    40    3   38 1
    41   10   39 1
    42   10   40 1
    43   11   41 1
    44   11   42 1
    45   12   43 1
    46   12   44 1
    47   13   45 1
    48   13   46 1
    49   14   47 1
    50   14   48 1
    51   15   49 1
    52   16   50 1
    53   17   51 1
    54   18   52 1
    55   18   53 1
    56   18   54 1
    57   19   55 1
    58   19   56 1
    59   19   57 1
    60   20   58 1
    61   20   59 1
    62   21   60 1
    63   21   61 1
    64   22   62 1
    65   22   63 1
    66   23   64 1
    67   24   65 1
    68   26   66 1
    69   26   67 1
    70   27   68 1
    71   27   69 1
    72   28   70 1
    73   29   71 1
    74   34   72 1
@<TRIPOS>MOLECULE
1dwc_ligand_161
   72    74     0     0     0
SMALL
USER_CHARGES

mmff94s_NoEstat = 78.65
@<TRIPOS>ATOM
      1 C1         -1.3865    0.4483    6.9697 C.ar      1 <0>        -0.1945
      2 C2         -0.5343   -0.2259    7.8418 C.ar      1 <0>        -0.0294
      3 C3         -1.9752   -0.2339    5.9091 C.ar      1 <0>        -0.0143
      4 C4         -0.2690   -1.5907    7.6596 C.ar      1 <0>        -0.1552
      5 C5         -0.8382   -2.2818    6.5715 C.ar      1 <0>         0.3076
      6 C6         -1.7052   -1.5894    5.7138 C.ar      1 <0>        -0.4908
      7 C7          3.6572    0.2351    4.2205 C.2       1 <0>         0.5994
      8 C8          0.8654   -1.4427    3.2413 C.2       1 <0>         0.6462
      9 C9          1.7699   -7.1193    0.0630 C.cat     1 <0>         0.6305
     10 C10         0.6628   -2.3037    8.6102 C.3       1 <0>        -0.0319
     11 C11         3.8985   -3.4862    3.6166 C.3       1 <0>        -0.0918
     12 C12         4.5525   -1.3270    2.5319 C.3       1 <0>        -0.0841
     13 C13         2.6738   -2.8056    4.2145 C.3       1 <0>         0.0870
     14 C14         0.4361   -4.3139    7.1291 C.3       1 <0>         0.2023
     15 C15         3.2751   -0.6689    3.0601 C.3       1 <0>         0.0778
     16 C16         0.4391   -3.8238    8.5808 C.3       1 <0>        -0.0746
     17 C17         5.0385   -2.4845    3.4144 C.3       1 <0>        -0.0681
     18 C18         1.5050   -4.5457    9.4006 C.3       1 <0>        -0.0944
     19 C19         6.2563   -3.1661    2.7936 C.3       1 <0>        -0.0918
     20 C20        -0.5404   -4.8511    2.0458 C.3       1 <0>        -0.1192
     21 C21         0.3004   -3.5693    2.0376 C.3       1 <0>        -0.0916
     22 C22        -0.1768   -5.7847    0.8978 C.3       1 <0>         0.1883
     23 C23        -0.0078   -2.6730    3.2260 C.3       1 <0>         0.1952
     24 N1         -0.5939   -3.6341    6.3665 N.pl3     1 <0>        -0.7670
     25 N2          2.2374   -1.6470    3.4280 N.am      1 <0>        -0.4509
     26 N3          3.1011   -7.5120    0.1550 N.pl3     1 <0>        -0.8477
     27 N4          0.9786   -7.6393   -0.9556 N.pl3     1 <0>        -0.8633
     28 N5          1.2122   -6.2141    0.9723 N.pl3     1 <0>        -0.7419
     29 N6         -1.3760   -2.1385    3.1042 N.pl3     1 <0>        -0.8860
     30 O1          3.6315   -0.0869    5.3991 O.2       1 <0>        -0.5199
     31 O2          0.3435   -0.3338    3.0981 O.2       1 <0>        -0.6131
     32 O3         -2.5906   -3.7967    4.6561 O.2       1 <0>        -0.6576
     33 O4         -3.7019   -1.6181    4.0705 O.2       1 <0>        -0.6482
     34 O5          4.0314    1.4581    3.7715 O.3       1 <0>        -0.6303
     35 S1         -2.5018   -2.3799    4.3583 S.o2      1 <0>         1.5193
     36 H1         -1.5937    1.5043    7.1196 H         1 <0>         0.1426
     37 H2         -0.0811    0.3144    8.6695 H         1 <0>         0.1398
     38 H3         -2.6454    0.2794    5.2269 H         1 <0>         0.1599
     39 H4          1.6952   -2.0650    8.3246 H         1 <0>         0.0574
     40 H5          0.5054   -1.9381    9.6324 H         1 <0>         0.0629
     41 H6          4.2244   -4.2993    4.2761 H         1 <0>         0.0614
     42 H7          3.6296   -3.9402    2.6542 H         1 <0>         0.0593
     43 H8          4.3500   -1.7152    1.5243 H         1 <0>         0.0841
     44 H9          5.3525   -0.5834    2.4253 H         1 <0>         0.0679
     45 H10         1.8623   -3.5349    4.3059 H         1 <0>         0.0826
     46 H11         2.8945   -2.4435    5.2260 H         1 <0>         0.0383
     47 H12         1.4122   -4.1368    6.6605 H         1 <0>         0.0556
     48 H13         0.2510   -5.3933    7.0942 H         1 <0>         0.0415
     49 H14         2.8873    0.0006    2.2858 H         1 <0>         0.0851
     50 H15        -0.5391   -4.0450    9.0289 H         1 <0>         0.0639
     51 H16         5.3432   -2.0892    4.3913 H         1 <0>         0.0584
     52 H17         1.2125   -5.5843    9.5819 H         1 <0>         0.0401
     53 H18         2.4629   -4.5449    8.8719 H         1 <0>         0.0440
     54 H19         1.6448   -4.0535   10.3677 H         1 <0>         0.0459
     55 H20         6.5585   -2.6519    1.8763 H         1 <0>         0.0456
     56 H21         7.1004   -3.1536    3.4896 H         1 <0>         0.0366
     57 H22         6.0293   -4.2073    2.5458 H         1 <0>         0.0474
     58 H23        -0.4002   -5.3741    2.9994 H         1 <0>         0.0800
     59 H24        -1.6035   -4.5964    1.9658 H         1 <0>         0.0681
     60 H25         0.1357   -3.0322    1.0943 H         1 <0>         0.0740
     61 H26         1.3654   -3.8328    2.0643 H         1 <0>         0.0631
     62 H27        -0.3350   -5.3004   -0.0711 H         1 <0>         0.0970
     63 H28        -0.8024   -6.6822    0.9336 H         1 <0>         0.0725
     64 H29         0.1003   -3.1895    4.1787 H         1 <0>         0.0839
     65 H30        -0.9636   -4.0687    5.5300 H         1 <0>         0.4531
     66 H31         3.7173   -7.1568    0.8813 H         1 <0>         0.4798
     67 H32         3.4989   -8.1703   -0.5108 H         1 <0>         0.4881
     68 H33         0.0016   -7.3736   -1.0521 H         1 <0>         0.4801
     69 H34         1.3562   -8.3001   -1.6305 H         1 <0>         0.4806
     70 H35         1.8180   -5.8498    1.7091 H         1 <0>         0.4689
     71 H36        -1.4850   -1.3266    2.4871 H         1 <0>         0.4505
     72 H37         4.2804    2.0579    4.5068 H         1 <0>         0.4443
@<TRIPOS>BOND
     1    1    2 ar
     2    1    3 ar
     3    2    4 ar
     4    3    6 ar
     5    4    5 ar
     6    4   10 1
     7    5    6 ar
     8    5   24 1
     9    6   35 1
    10    7   15 1
    11    7   30 2
    12    7   34 1
    13    8   23 1
    14    8   25 am
    15    8   31 2
    16    9   26 1
    17    9   27 1
    18    9   28 1
    19   10   16 1
    20   11   13 1
    21   11   17 1
    22   12   15 1
    23   12   17 1
    24   13   25 1
    25   14   16 1
    26   14   24 1
    27   15   25 1
    28   16   18 1
    29   17   19 1
    30   20   21 1
    31   20   22 1
    32   21   23 1
    33   22   28 1
    34   23   29 1
    35   29   35 1
    36   32   35 2
    37   33   35 2
    38    1   36 1
    39    2   37 1
    40    3   38 1
    41   10   39 1
    42   10   40 1
    43   11   41 1
    44   11   42 1
    45   12   43 1
    46   12   44 1
    47   13   45 1
    48   13   46 1
    49   14   47 1
    50   14   48 1
    51   15   49 1
    52   16   50 1
    53   17   51 1
    54   18   52 1
    55   18   53 1
    56   18   54 1
    57   19   55 1
    58   19   56 1
    59   19   57 1
    60   20   58 1
    61   20   59 1
    62   21   60 1
    63   21   61 1
    64   22   62 1
    65   22   63 1
    66   23   64 1
    67   24   65 1
    68   26   66 1
    69   26   67 1
    70   27   68 1
    71   27   69 1
    72   28   70 1
    73   29   71 1
    74   34   72 1
@<TRIPOS>MOLECULE
1dwc_ligand_162
   72    74     0     0     0
SMALL
USER_CHARGES

mmff94s_NoEstat = 78.67
@<TRIPOS>ATOM
      1 C1         -1.4072   -6.2841    0.5334 C.ar      1 <0>        -0.1945
      2 C2         -0.3050   -6.5010   -0.2908 C.ar      1 <0>        -0.0294
      3 C3         -1.2178   -5.9155    1.8618 C.ar      1 <0>        -0.0143
      4 C4          0.9961   -6.3538    0.2114 C.ar      1 <0>        -0.1552
      5 C5          1.1959   -5.9530    1.5470 C.ar      1 <0>         0.3076
      6 C6          0.0742   -5.7546    2.3651 C.ar      1 <0>        -0.4908
      7 C7         -1.4628    0.1636    1.3526 C.2       1 <0>         0.5994
      8 C8          0.8654   -1.4427    3.2413 C.2       1 <0>         0.6462
      9 C9         -3.0269   -4.2491    7.1046 C.cat     1 <0>         0.6305
     10 C10         2.1776   -6.5853   -0.6996 C.3       1 <0>        -0.0319
     11 C11         2.1918    0.8805    0.7195 C.3       1 <0>        -0.0918
     12 C12         0.2821   -0.3679   -0.3105 C.3       1 <0>        -0.0841
     13 C13         1.6113    0.6116    2.1020 C.3       1 <0>         0.0870
     14 C14         3.6317   -5.8205    1.2015 C.3       1 <0>         0.2023
     15 C15        -0.2506   -0.7126    1.0828 C.3       1 <0>         0.0778
     16 C16         3.4776   -6.8504    0.0772 C.3       1 <0>        -0.0746
     17 C17         1.0859    0.9390   -0.3376 C.3       1 <0>        -0.0681
     18 C18         3.5447   -8.2877    0.6061 C.3       1 <0>        -0.0944
     19 C19         1.6740    1.1859   -1.7255 C.3       1 <0>        -0.0918
     20 C20        -1.0866   -2.1427    5.4567 C.3       1 <0>        -0.1192
     21 C21        -1.3133   -2.4479    3.9716 C.3       1 <0>        -0.0916
     22 C22        -2.3970   -1.9935    6.2196 C.3       1 <0>         0.1883
     23 C23        -0.0078   -2.6730    3.2260 C.3       1 <0>         0.1952
     24 N1          2.4729   -5.8065    2.0741 N.pl3     1 <0>        -0.7670
     25 N2          0.7744   -0.5925    2.1333 N.am      1 <0>        -0.4509
     26 N3         -3.7970   -5.4059    7.0420 N.pl3     1 <0>        -0.8477
     27 N4         -2.0778   -4.1204    8.1129 N.pl3     1 <0>        -0.8633
     28 N5         -3.1876   -3.2152    6.1760 N.pl3     1 <0>        -0.7419
     29 N6          0.7961   -3.6905    3.9267 N.pl3     1 <0>        -0.8860
     30 O1         -1.4385    1.2323    1.9447 O.2       1 <0>        -0.5199
     31 O2          1.6103   -1.2468    4.2054 O.2       1 <0>        -0.6131
     32 O3         -1.1034   -5.2783    4.6370 O.2       1 <0>        -0.6576
     33 O4          1.2668   -6.1189    4.6309 O.2       1 <0>        -0.6482
     34 O5         -2.5854   -0.4037    0.8474 O.3       1 <0>        -0.6303
     35 S1          0.2254   -5.2894    4.0556 S.o2      1 <0>         1.5193
     36 H1         -2.4130   -6.4058    0.1405 H         1 <0>         0.1426
     37 H2         -0.4624   -6.7916   -1.3268 H         1 <0>         0.1398
     38 H3         -2.0688   -5.7496    2.5150 H         1 <0>         0.1599
     39 H4          1.9762   -7.4254   -1.3755 H         1 <0>         0.0574
     40 H5          2.3035   -5.6869   -1.3173 H         1 <0>         0.0629
     41 H6          2.7495    1.8244    0.7335 H         1 <0>         0.0614
     42 H7          2.9066    0.0878    0.4640 H         1 <0>         0.0593
     43 H8          0.9336   -1.1873   -0.6438 H         1 <0>         0.0841
     44 H9         -0.5414   -0.3095   -1.0336 H         1 <0>         0.0679
     45 H10         2.4269    0.5309    2.8282 H         1 <0>         0.0826
     46 H11         0.9807    1.4504    2.4206 H         1 <0>         0.0383
     47 H12         4.5279   -6.0341    1.7945 H         1 <0>         0.0556
     48 H13         3.7631   -4.8203    0.7705 H         1 <0>         0.0415
     49 H14        -0.6325   -1.7382    1.0612 H         1 <0>         0.0851
     50 H15         4.3197   -6.7370   -0.6165 H         1 <0>         0.0639
     51 H16         0.4173    1.7778   -0.1080 H         1 <0>         0.0584
     52 H17         2.5943   -8.8034    0.4393 H         1 <0>         0.0401
     53 H18         4.3347   -8.8481    0.0972 H         1 <0>         0.0440
     54 H19         3.7555   -8.2927    1.6797 H         1 <0>         0.0459
     55 H20         1.1081    0.6390   -2.4855 H         1 <0>         0.0456
     56 H21         1.6425    2.2512   -1.9725 H         1 <0>         0.0366
     57 H22         2.7156    0.8534   -1.7662 H         1 <0>         0.0474
     58 H23        -0.4913   -2.9455    5.9081 H         1 <0>         0.0800
     59 H24        -0.5143   -1.2136    5.5600 H         1 <0>         0.0681
     60 H25        -1.8840   -1.6286    3.5148 H         1 <0>         0.0740
     61 H26        -1.9315   -3.3495    3.8758 H         1 <0>         0.0631
     62 H27        -3.0022   -1.1781    5.8107 H         1 <0>         0.0970
     63 H28        -2.1935   -1.7693    7.2716 H         1 <0>         0.0725
     64 H29        -0.1638   -2.9774    2.1921 H         1 <0>         0.0839
     65 H30         2.5644   -5.4443    3.0154 H         1 <0>         0.4531
     66 H31        -4.5036   -5.5429    6.3243 H         1 <0>         0.4798
     67 H32        -3.6741   -6.1527    7.7218 H         1 <0>         0.4881
     68 H33        -1.4980   -3.2881    8.1880 H         1 <0>         0.4801
     69 H34        -1.9378   -4.8560    8.8013 H         1 <0>         0.4806
     70 H35        -3.8923   -3.3388    5.4474 H         1 <0>         0.4689
     71 H36         1.8068   -3.5190    3.9555 H         1 <0>         0.4505
     72 H37        -3.3805    0.1466    1.0133 H         1 <0>         0.4443
@<TRIPOS>BOND
     1    1    2 ar
     2    1    3 ar
     3    2    4 ar
     4    3    6 ar
     5    4    5 ar
     6    4   10 1
     7    5    6 ar
     8    5   24 1
     9    6   35 1
    10    7   15 1
    11    7   30 2
    12    7   34 1
    13    8   23 1
    14    8   25 am
    15    8   31 2
    16    9   26 1
    17    9   27 1
    18    9   28 1
    19   10   16 1
    20   11   13 1
    21   11   17 1
    22   12   15 1
    23   12   17 1
    24   13   25 1
    25   14   16 1
    26   14   24 1
    27   15   25 1
    28   16   18 1
    29   17   19 1
    30   20   21 1
    31   20   22 1
    32   21   23 1
    33   22   28 1
    34   23   29 1
    35   29   35 1
    36   32   35 2
    37   33   35 2
    38    1   36 1
    39    2   37 1
    40    3   38 1
    41   10   39 1
    42   10   40 1
    43   11   41 1
    44   11   42 1
    45   12   43 1
    46   12   44 1
    47   13   45 1
    48   13   46 1
    49   14   47 1
    50   14   48 1
    51   15   49 1
    52   16   50 1
    53   17   51 1
    54   18   52 1
    55   18   53 1
    56   18   54 1
    57   19   55 1
    58   19   56 1
    59   19   57 1
    60   20   58 1
    61   20   59 1
    62   21   60 1
    63   21   61 1
    64   22   62 1
    65   22   63 1
    66   23   64 1
    67   24   65 1
    68   26   66 1
    69   26   67 1
    70   27   68 1
    71   27   69 1
    72   28   70 1
    73   29   71 1
    74   34   72 1
@<TRIPOS>MOLECULE
1dwc_ligand_163
   72    74     0     0     0
SMALL
USER_CHARGES

mmff94s_NoEstat = 78.67
@<TRIPOS>ATOM
      1 C1         -0.1021   -7.1683    0.7355 C.ar      1 <0>        -0.1945
      2 C2         -0.5792   -8.1239    1.6301 C.ar      1 <0>        -0.0294
      3 C3          0.6637   -6.1037    1.2012 C.ar      1 <0>        -0.0143
      4 C4         -0.2955   -8.0178    2.9994 C.ar      1 <0>        -0.1552
      5 C5          0.5031   -6.9592    3.4747 C.ar      1 <0>         0.3076
      6 C6          0.9609   -5.9987    2.5610 C.ar      1 <0>        -0.4908
      7 C7         -0.2549    0.4306    0.6330 C.2       1 <0>         0.5994
      8 C8          0.8654   -1.4427    3.2413 C.2       1 <0>         0.6462
      9 C9         -2.8213    0.6638    5.9816 C.cat     1 <0>         0.6305
     10 C10        -0.8145   -9.0679    3.9520 C.3       1 <0>        -0.0319
     11 C11         3.3665   -0.6443    0.6676 C.3       1 <0>        -0.0918
     12 C12         1.2181   -1.2005   -0.4907 C.3       1 <0>        -0.0841
     13 C13         2.5847   -0.2704    1.9206 C.3       1 <0>         0.0870
     14 C14         0.4940   -7.9005    5.7515 C.3       1 <0>         0.2023
     15 C15         0.4427   -0.9096    0.7969 C.3       1 <0>         0.0778
     16 C16        -0.8357   -8.5817    5.4103 C.3       1 <0>        -0.0746
     17 C17         2.5288   -0.4088   -0.5919 C.3       1 <0>        -0.0681
     18 C18        -2.0342   -7.6681    5.6911 C.3       1 <0>        -0.0944
     19 C19         3.3078   -0.8065   -1.8442 C.3       1 <0>        -0.0918
     20 C20        -2.1115   -1.2711    3.3990 C.3       1 <0>        -0.1192
     21 C21        -1.3133   -2.4479    3.9716 C.3       1 <0>        -0.0916
     22 C22        -3.3821   -0.9970    4.1941 C.3       1 <0>         0.1883
     23 C23        -0.0078   -2.6730    3.2260 C.3       1 <0>         0.1952
     24 N1          0.7943   -6.8242    4.8264 N.pl3     1 <0>        -0.7670
     25 N2          1.2915   -0.9578    1.9994 N.am      1 <0>        -0.4509
     26 N3         -2.5447    0.9705    7.3098 N.pl3     1 <0>        -0.8477
     27 N4         -2.8329    1.6855    5.0381 N.pl3     1 <0>        -0.8633
     28 N5         -3.0875   -0.6486    5.5765 N.pl3     1 <0>        -0.7419
     29 N6          0.7961   -3.6905    3.9267 N.pl3     1 <0>        -0.8860
     30 O1          0.1931    1.5051    1.0045 O.2       1 <0>        -0.5199
     31 O2          1.1650   -0.9321    4.3240 O.2       1 <0>        -0.6131
     32 O3          2.9489   -5.1033    3.9827 O.2       1 <0>        -0.6576
     33 O4          2.3147   -3.9087    1.8626 O.2       1 <0>        -0.6482
     34 O5         -1.4521    0.2749    0.0168 O.3       1 <0>        -0.6303
     35 S1          1.9328   -4.6215    3.0666 S.o2      1 <0>         1.5193
     36 H1         -0.3304   -7.2521   -0.3236 H         1 <0>         0.1426
     37 H2         -1.1793   -8.9508    1.2577 H         1 <0>         0.1398
     38 H3          1.0358   -5.3499    0.5144 H         1 <0>         0.1599
     39 H4         -1.8224   -9.3834    3.6556 H         1 <0>         0.0574
     40 H5         -0.1575   -9.9435    3.8733 H         1 <0>         0.0629
     41 H6          4.2893   -0.0541    0.6219 H         1 <0>         0.0614
     42 H7          3.6617   -1.6999    0.7239 H         1 <0>         0.0593
     43 H8          1.4535   -2.2733   -0.5175 H         1 <0>         0.0841
     44 H9          0.5944   -0.9953   -1.3701 H         1 <0>         0.0679
     45 H10         3.1909   -0.4908    2.8053 H         1 <0>         0.0826
     46 H11         2.3782    0.8066    1.9340 H         1 <0>         0.0383
     47 H12         0.4682   -7.5028    6.7722 H         1 <0>         0.0556
     48 H13         1.3063   -8.6368    5.7145 H         1 <0>         0.0415
     49 H14        -0.3616   -1.6465    0.8882 H         1 <0>         0.0851
     50 H15        -0.9553   -9.4568    6.0608 H         1 <0>         0.0639
     51 H16         2.2982    0.6607   -0.6719 H         1 <0>         0.0584
     52 H17        -2.5659   -7.4356    4.7636 H         1 <0>         0.0401
     53 H18        -2.7347   -8.1530    6.3776 H         1 <0>         0.0440
     54 H19        -1.7034   -6.7283    6.1433 H         1 <0>         0.0459
     55 H20         2.6382   -1.2449   -2.5902 H         1 <0>         0.0456
     56 H21         3.7937    0.0674   -2.2885 H         1 <0>         0.0366
     57 H22         4.0794   -1.5424   -1.5992 H         1 <0>         0.0474
     58 H23        -1.4838   -0.3719    3.3933 H         1 <0>         0.0800
     59 H24        -2.3885   -1.4831    2.3599 H         1 <0>         0.0681
     60 H25        -1.9335   -3.3536    3.9489 H         1 <0>         0.0740
     61 H26        -1.0849   -2.2531    5.0271 H         1 <0>         0.0631
     62 H27        -4.0449   -1.8681    4.1933 H         1 <0>         0.0970
     63 H28        -3.9265   -0.1572    3.7507 H         1 <0>         0.0725
     64 H29        -0.1638   -2.9774    2.1921 H         1 <0>         0.0839
     65 H30         1.4333   -6.0909    5.1082 H         1 <0>         0.4531
     66 H31        -2.5273    0.2572    8.0338 H         1 <0>         0.4798
     67 H32        -2.3528    1.9278    7.5960 H         1 <0>         0.4881
     68 H33        -3.0315    1.4965    4.0587 H         1 <0>         0.4801
     69 H34        -2.6420    2.6489    5.3029 H         1 <0>         0.4806
     70 H35        -3.0717   -1.3769    6.2920 H         1 <0>         0.4689
     71 H36         0.9382   -3.5340    4.9302 H         1 <0>         0.4505
     72 H37        -1.9197    1.1298   -0.0968 H         1 <0>         0.4443
@<TRIPOS>BOND
     1    1    2 ar
     2    1    3 ar
     3    2    4 ar
     4    3    6 ar
     5    4    5 ar
     6    4   10 1
     7    5    6 ar
     8    5   24 1
     9    6   35 1
    10    7   15 1
    11    7   30 2
    12    7   34 1
    13    8   23 1
    14    8   25 am
    15    8   31 2
    16    9   26 1
    17    9   27 1
    18    9   28 1
    19   10   16 1
    20   11   13 1
    21   11   17 1
    22   12   15 1
    23   12   17 1
    24   13   25 1
    25   14   16 1
    26   14   24 1
    27   15   25 1
    28   16   18 1
    29   17   19 1
    30   20   21 1
    31   20   22 1
    32   21   23 1
    33   22   28 1
    34   23   29 1
    35   29   35 1
    36   32   35 2
    37   33   35 2
    38    1   36 1
    39    2   37 1
    40    3   38 1
    41   10   39 1
    42   10   40 1
    43   11   41 1
    44   11   42 1
    45   12   43 1
    46   12   44 1
    47   13   45 1
    48   13   46 1
    49   14   47 1
    50   14   48 1
    51   15   49 1
    52   16   50 1
    53   17   51 1
    54   18   52 1
    55   18   53 1
    56   18   54 1
    57   19   55 1
    58   19   56 1
    59   19   57 1
    60   20   58 1
    61   20   59 1
    62   21   60 1
    63   21   61 1
    64   22   62 1
    65   22   63 1
    66   23   64 1
    67   24   65 1
    68   26   66 1
    69   26   67 1
    70   27   68 1
    71   27   69 1
    72   28   70 1
    73   29   71 1
    74   34   72 1
@<TRIPOS>MOLECULE
1dwc_ligand_164
   72    74     0     0     0
SMALL
USER_CHARGES

mmff94s_NoEstat = 78.68
@<TRIPOS>ATOM
      1 C1          3.0864   -6.8132   -1.6121 C.ar      1 <0>        -0.1945
      2 C2          2.0235   -6.9752   -0.7260 C.ar      1 <0>        -0.0294
      3 C3          3.0725   -5.7656   -2.5283 C.ar      1 <0>        -0.0143
      4 C4          0.9399   -6.0855   -0.7488 C.ar      1 <0>        -0.1552
      5 C5          0.9045   -5.0397   -1.6925 C.ar      1 <0>         0.3076
      6 C6          1.9909   -4.8841   -2.5656 C.ar      1 <0>        -0.4908
      7 C7          1.8102   -1.5505    2.3702 C.2       1 <0>         0.5994
      8 C8          2.9466   -1.3973   -0.6457 C.2       1 <0>         0.6462
      9 C9          4.7600    3.2037   -3.5521 C.cat     1 <0>         0.6305
     10 C10        -0.2069   -6.2806    0.2139 C.3       1 <0>        -0.0319
     11 C11         4.4920   -3.4807    2.0801 C.3       1 <0>        -0.0918
     12 C12         4.1798   -1.0721    2.8769 C.3       1 <0>        -0.0841
     13 C13         4.5658   -2.7774    0.7291 C.3       1 <0>         0.0870
     14 C14        -1.3613   -4.3977   -0.9727 C.3       1 <0>         0.2023
     15 C15         3.1125   -1.0286    1.7861 C.3       1 <0>         0.0778
     16 C16        -1.0112   -4.9842    0.3988 C.3       1 <0>        -0.0746
     17 C17         4.5869   -2.5050    3.2643 C.3       1 <0>        -0.0681
     18 C18        -2.2700   -5.2387    1.2234 C.3       1 <0>        -0.0944
     19 C19         5.9882   -2.5079    3.8779 C.3       1 <0>        -0.0918
     20 C20         4.0666    0.0061   -3.0917 C.3       1 <0>        -0.1192
     21 C21         4.5564   -1.3488   -2.5679 C.3       1 <0>        -0.0916
     22 C22         5.1498    0.7503   -3.8628 C.3       1 <0>         0.1883
     23 C23         3.4544   -2.1251   -1.8653 C.3       1 <0>         0.1952
     24 N1         -0.1556   -4.1426   -1.7381 N.pl3     1 <0>        -0.7670
     25 N2          3.5192   -1.7560    0.5781 N.am      1 <0>        -0.4509
     26 N3          4.3075    4.4305   -4.0267 N.pl3     1 <0>        -0.8477
     27 N4          5.3011    3.1294   -2.2732 N.pl3     1 <0>        -0.8633
     28 N5          4.6819    2.0459   -4.3336 N.pl3     1 <0>        -0.7419
     29 N6          2.2741   -2.2179   -2.7432 N.pl3     1 <0>        -0.8860
     30 O1          1.2492   -1.0925    3.3546 O.2       1 <0>        -0.5199
     31 O2          2.0685   -0.5400   -0.7710 O.2       1 <0>        -0.6131
     32 O3          3.2466   -3.7694   -4.5546 O.2       1 <0>        -0.6576
     33 O4          0.7526   -3.5048   -4.3692 O.2       1 <0>        -0.6482
     34 O5          1.3501   -2.6026    1.6500 O.3       1 <0>        -0.6303
     35 S1          2.0591   -3.5786   -3.7438 S.o2      1 <0>         1.5193
     36 H1          3.9266   -7.5016   -1.5854 H         1 <0>         0.1426
     37 H2          2.0443   -7.7948   -0.0116 H         1 <0>         0.1398
     38 H3          3.8977   -5.6260   -3.2193 H         1 <0>         0.1599
     39 H4         -0.8529   -7.0772   -0.1766 H         1 <0>         0.0574
     40 H5          0.1751   -6.6074    1.1889 H         1 <0>         0.0629
     41 H6          3.5311   -4.0088    2.1410 H         1 <0>         0.0614
     42 H7          5.2694   -4.2509    2.1463 H         1 <0>         0.0593
     43 H8          5.0641   -0.5305    2.5137 H         1 <0>         0.0841
     44 H9          3.8399   -0.5392    3.7741 H         1 <0>         0.0679
     45 H10         5.5312   -2.2723    0.6079 H         1 <0>         0.0826
     46 H11         4.4795   -3.5150   -0.0747 H         1 <0>         0.0383
     47 H12        -2.0084   -5.0849   -1.5319 H         1 <0>         0.0556
     48 H13        -1.9126   -3.4583   -0.8533 H         1 <0>         0.0415
     49 H14         2.9188    0.0160    1.5141 H         1 <0>         0.0851
     50 H15        -0.3913   -4.2593    0.9436 H         1 <0>         0.0639
     51 H16         3.9047   -2.8651    4.0450 H         1 <0>         0.0584
     52 H17        -2.7070   -4.2936    1.5593 H         1 <0>         0.0401
     53 H18        -3.0178   -5.7721    0.6290 H         1 <0>         0.0440
     54 H19        -2.0361   -5.8426    2.1053 H         1 <0>         0.0459
     55 H20         6.0310   -3.1862    4.7353 H         1 <0>         0.0456
     56 H21         6.7293   -2.8350    3.1425 H         1 <0>         0.0366
     57 H22         6.2606   -1.5045    4.2187 H         1 <0>         0.0474
     58 H23         3.1961   -0.1462   -3.7411 H         1 <0>         0.0800
     59 H24         3.7428    0.6319   -2.2522 H         1 <0>         0.0681
     60 H25         5.4094   -1.1917   -1.8946 H         1 <0>         0.0740
     61 H26         4.9285   -1.9502   -3.4070 H         1 <0>         0.0631
     62 H27         5.4874    0.1718   -4.7286 H         1 <0>         0.0970
     63 H28         6.0148    0.9268   -3.2156 H         1 <0>         0.0725
     64 H29         3.7703   -3.1244   -1.5692 H         1 <0>         0.0839
     65 H30        -0.1728   -3.4550   -2.4811 H         1 <0>         0.4531
     66 H31         3.9067    4.5329   -4.9552 H         1 <0>         0.4798
     67 H32         4.3687    5.2678   -3.4520 H         1 <0>         0.4881
     68 H33         5.6415    2.2486   -1.8951 H         1 <0>         0.4801
     69 H34         5.3698    3.9541   -1.6818 H         1 <0>         0.4806
     70 H35         4.2797    2.1322   -5.2682 H         1 <0>         0.4689
     71 H36         1.4502   -1.6870   -2.4414 H         1 <0>         0.4505
     72 H37         0.5099   -2.9556    2.0129 H         1 <0>         0.4443
@<TRIPOS>BOND
     1    1    2 ar
     2    1    3 ar
     3    2    4 ar
     4    3    6 ar
     5    4    5 ar
     6    4   10 1
     7    5    6 ar
     8    5   24 1
     9    6   35 1
    10    7   15 1
    11    7   30 2
    12    7   34 1
    13    8   23 1
    14    8   25 am
    15    8   31 2
    16    9   26 1
    17    9   27 1
    18    9   28 1
    19   10   16 1
    20   11   13 1
    21   11   17 1
    22   12   15 1
    23   12   17 1
    24   13   25 1
    25   14   16 1
    26   14   24 1
    27   15   25 1
    28   16   18 1
    29   17   19 1
    30   20   21 1
    31   20   22 1
    32   21   23 1
    33   22   28 1
    34   23   29 1
    35   29   35 1
    36   32   35 2
    37   33   35 2
    38    1   36 1
    39    2   37 1
    40    3   38 1
    41   10   39 1
    42   10   40 1
    43   11   41 1
    44   11   42 1
    45   12   43 1
    46   12   44 1
    47   13   45 1
    48   13   46 1
    49   14   47 1
    50   14   48 1
    51   15   49 1
    52   16   50 1
    53   17   51 1
    54   18   52 1
    55   18   53 1
    56   18   54 1
    57   19   55 1
    58   19   56 1
    59   19   57 1
    60   20   58 1
    61   20   59 1
    62   21   60 1
    63   21   61 1
    64   22   62 1
    65   22   63 1
    66   23   64 1
    67   24   65 1
    68   26   66 1
    69   26   67 1
    70   27   68 1
    71   27   69 1
    72   28   70 1
    73   29   71 1
    74   34   72 1
@<TRIPOS>MOLECULE
1dwc_ligand_165
   72    74     0     0     0
SMALL
USER_CHARGES

mmff94s_NoEstat = 78.69
@<TRIPOS>ATOM
      1 C1         -1.9965   -5.9212    5.9958 C.ar      1 <0>        -0.1945
      2 C2         -2.1862   -5.2163    7.1826 C.ar      1 <0>        -0.0294
      3 C3         -2.1655   -5.2788    4.7728 C.ar      1 <0>        -0.0143
      4 C4         -2.5430   -3.8606    7.1524 C.ar      1 <0>        -0.1552
      5 C5         -2.7443   -3.2106    5.9185 C.ar      1 <0>         0.3076
      6 C6         -2.5336   -3.9330    4.7351 C.ar      1 <0>        -0.4908
      7 C7          1.8094   -2.2220    6.4146 C.2       1 <0>         0.5994
      8 C8          0.8654   -1.4427    3.2413 C.2       1 <0>         0.6462
      9 C9          1.5497   -7.0495    4.2712 C.cat     1 <0>         0.6305
     10 C10        -2.7517   -3.1143    8.4484 C.3       1 <0>        -0.0319
     11 C11         1.3547    1.4153    5.5015 C.3       1 <0>        -0.0918
     12 C12         0.1935   -0.3932    6.7850 C.3       1 <0>        -0.0841
     13 C13         1.9116    0.3681    4.5455 C.3       1 <0>         0.0870
     14 C14        -3.4952   -1.1625    7.0613 C.3       1 <0>         0.2023
     15 C15         0.6811   -1.4322    5.7719 C.3       1 <0>         0.0778
     16 C16        -2.6278   -1.5957    8.2477 C.3       1 <0>        -0.0746
     17 C17         1.1262    0.8207    6.8935 C.3       1 <0>        -0.0681
     18 C18        -3.0221   -0.8459    9.5173 C.3       1 <0>        -0.0944
     19 C19         0.5462    1.8676    7.8426 C.3       1 <0>        -0.0918
     20 C20         1.7689   -4.0083    2.0091 C.3       1 <0>        -0.1192
     21 C21         0.3004   -3.5693    2.0376 C.3       1 <0>        -0.0916
     22 C22         2.1396   -4.8550    3.2204 C.3       1 <0>         0.1883
     23 C23        -0.0078   -2.6730    3.2260 C.3       1 <0>         0.1952
     24 N1         -3.0973   -1.8681    5.8578 N.pl3     1 <0>        -0.7670
     25 N2          1.0754   -0.8353    4.4846 N.am      1 <0>        -0.4509
     26 N3          0.7843   -8.2104    4.3089 N.pl3     1 <0>        -0.8477
     27 N4          2.5289   -6.8514    5.2386 N.pl3     1 <0>        -0.8633
     28 N5          1.3547   -6.0796    3.2820 N.pl3     1 <0>        -0.7419
     29 N6         -1.3760   -2.1385    3.1042 N.pl3     1 <0>        -0.8860
     30 O1          2.9993   -1.9718    6.2928 O.2       1 <0>        -0.5199
     31 O2          1.3411   -1.0305    2.1799 O.2       1 <0>        -0.6131
     32 O3         -2.5366   -4.2300    2.1492 O.2       1 <0>        -0.6576
     33 O4         -3.9323   -2.4104    3.1814 O.2       1 <0>        -0.6482
     34 O5          1.3170   -3.2520    7.1454 O.3       1 <0>        -0.6303
     35 S1         -2.7118   -3.1932    3.1483 S.o2      1 <0>         1.5193
     36 H1         -1.7136   -6.9698    6.0253 H         1 <0>         0.1426
     37 H2         -2.0492   -5.7255    8.1337 H         1 <0>         0.1398
     38 H3         -2.0145   -5.8162    3.8419 H         1 <0>         0.1599
     39 H4         -3.7469   -3.3674    8.8354 H         1 <0>         0.0574
     40 H5         -2.0117   -3.4391    9.1901 H         1 <0>         0.0629
     41 H6          2.0492    2.2615    5.5629 H         1 <0>         0.0614
     42 H7          0.4079    1.8038    5.1048 H         1 <0>         0.0593
     43 H8         -0.8003   -0.0449    6.4717 H         1 <0>         0.0841
     44 H9          0.0668   -0.8506    7.7745 H         1 <0>         0.0679
     45 H10         2.0225    0.8091    3.5494 H         1 <0>         0.0826
     46 H11         2.9105    0.0502    4.8680 H         1 <0>         0.0383
     47 H12        -4.5547   -1.3611    7.2657 H         1 <0>         0.0556
     48 H13        -3.3943   -0.0847    6.8920 H         1 <0>         0.0415
     49 H14        -0.1232   -2.1562    5.6073 H         1 <0>         0.0851
     50 H15        -1.5799   -1.3538    8.0242 H         1 <0>         0.0639
     51 H16         2.0901    0.4983    7.3061 H         1 <0>         0.0584
     52 H17        -2.7058    0.1999    9.4599 H         1 <0>         0.0401
     53 H18        -4.1069   -0.8706    9.6572 H         1 <0>         0.0440
     54 H19        -2.5511   -1.3005   10.3940 H         1 <0>         0.0459
     55 H20        -0.3870    1.5087    8.2868 H         1 <0>         0.0456
     56 H21         1.2507    2.0862    8.6507 H         1 <0>         0.0366
     57 H22         0.3370    2.7982    7.3067 H         1 <0>         0.0474
     58 H23         1.9621   -4.5788    1.0926 H         1 <0>         0.0800
     59 H24         2.4183   -3.1256    1.9878 H         1 <0>         0.0681
     60 H25        -0.3448   -4.4577    2.0448 H         1 <0>         0.0740
     61 H26         0.0666   -3.0218    1.1158 H         1 <0>         0.0631
     62 H27         1.9858   -4.3013    4.1521 H         1 <0>         0.0970
     63 H28         3.1948   -5.1415    3.1673 H         1 <0>         0.0725
     64 H29         0.1003   -3.1895    4.1787 H         1 <0>         0.0839
     65 H30        -3.3042   -1.4652    4.9522 H         1 <0>         0.4531
     66 H31         0.0565   -8.3968    3.6242 H         1 <0>         0.4798
     67 H32         0.9323   -8.9105    5.0322 H         1 <0>         0.4881
     68 H33         3.1063   -6.0140    5.2405 H         1 <0>         0.4801
     69 H34         2.6942   -7.5396    5.9692 H         1 <0>         0.4806
     70 H35         0.6284   -6.2533    2.5856 H         1 <0>         0.4689
     71 H36        -1.5021   -1.1633    3.3956 H         1 <0>         0.4505
     72 H37         2.0308   -3.7759    7.5675 H         1 <0>         0.4443
@<TRIPOS>BOND
     1    1    2 ar
     2    1    3 ar
     3    2    4 ar
     4    3    6 ar
     5    4    5 ar
     6    4   10 1
     7    5    6 ar
     8    5   24 1
     9    6   35 1
    10    7   15 1
    11    7   30 2
    12    7   34 1
    13    8   23 1
    14    8   25 am
    15    8   31 2
    16    9   26 1
    17    9   27 1
    18    9   28 1
    19   10   16 1
    20   11   13 1
    21   11   17 1
    22   12   15 1
    23   12   17 1
    24   13   25 1
    25   14   16 1
    26   14   24 1
    27   15   25 1
    28   16   18 1
    29   17   19 1
    30   20   21 1
    31   20   22 1
    32   21   23 1
    33   22   28 1
    34   23   29 1
    35   29   35 1
    36   32   35 2
    37   33   35 2
    38    1   36 1
    39    2   37 1
    40    3   38 1
    41   10   39 1
    42   10   40 1
    43   11   41 1
    44   11   42 1
    45   12   43 1
    46   12   44 1
    47   13   45 1
    48   13   46 1
    49   14   47 1
    50   14   48 1
    51   15   49 1
    52   16   50 1
    53   17   51 1
    54   18   52 1
    55   18   53 1
    56   18   54 1
    57   19   55 1
    58   19   56 1
    59   19   57 1
    60   20   58 1
    61   20   59 1
    62   21   60 1
    63   21   61 1
    64   22   62 1
    65   22   63 1
    66   23   64 1
    67   24   65 1
    68   26   66 1
    69   26   67 1
    70   27   68 1
    71   27   69 1
    72   28   70 1
    73   29   71 1
    74   34   72 1
@<TRIPOS>MOLECULE
1dwc_ligand_166
   72    74     0     0     0
SMALL
USER_CHARGES

mmff94s_NoEstat = 78.72
@<TRIPOS>ATOM
      1 C1          0.6009   -5.4402   -0.5450 C.ar      1 <0>        -0.1945
      2 C2          1.9177   -5.1745   -0.9146 C.ar      1 <0>        -0.0294
      3 C3          0.2538   -5.4826    0.8019 C.ar      1 <0>        -0.0143
      4 C4          2.8980   -4.9531    0.0635 C.ar      1 <0>        -0.1552
      5 C5          2.5489   -4.9659    1.4281 C.ar      1 <0>         0.3076
      6 C6          1.2217   -5.2505    1.7807 C.ar      1 <0>        -0.4908
      7 C7          0.0474   -1.6003   -0.0563 C.2       1 <0>         0.5994
      8 C8          0.8654   -1.4427    3.2413 C.2       1 <0>         0.6462
      9 C9         -4.0845   -0.2977    6.4931 C.cat     1 <0>         0.6305
     10 C10         4.3179   -4.6587   -0.3572 C.3       1 <0>        -0.0319
     11 C11         2.7802    0.7752    1.0208 C.3       1 <0>        -0.0918
     12 C12         2.5085   -1.4277   -0.1368 C.3       1 <0>        -0.0841
     13 C13         1.5404    0.4804    1.8554 C.3       1 <0>         0.0870
     14 C14         4.8245   -4.2772    2.0742 C.3       1 <0>         0.2023
     15 C15         1.3165   -1.7600    0.7646 C.3       1 <0>         0.0778
     16 C16         5.3306   -4.9077    0.7723 C.3       1 <0>        -0.0746
     17 C17         2.7020    0.0809   -0.3413 C.3       1 <0>        -0.0681
     18 C18         5.6414   -6.3991    0.9431 C.3       1 <0>        -0.0944
     19 C19         3.9570    0.3602   -1.1659 C.3       1 <0>        -0.0918
     20 C20        -2.1115   -1.2711    3.3990 C.3       1 <0>        -0.1192
     21 C21        -1.3133   -2.4479    3.9716 C.3       1 <0>        -0.0916
     22 C22        -3.3821   -0.9970    4.1941 C.3       1 <0>         0.1883
     23 C23        -0.0078   -2.6730    3.2260 C.3       1 <0>         0.1952
     24 N1          3.4999   -4.7575    2.4193 N.pl3     1 <0>        -0.7670
     25 N2          1.2915   -0.9578    1.9994 N.am      1 <0>        -0.4509
     26 N3         -3.7764    0.0291    7.8096 N.pl3     1 <0>        -0.8477
     27 N4         -5.4128   -0.2742    6.0819 N.pl3     1 <0>        -0.8633
     28 N5         -3.0875   -0.6486    5.5765 N.pl3     1 <0>        -0.7419
     29 N6          0.7961   -3.6905    3.9267 N.pl3     1 <0>        -0.8860
     30 O1         -0.1814   -2.1703   -1.1128 O.2       1 <0>        -0.5199
     31 O2          1.1650   -0.9321    4.3240 O.2       1 <0>        -0.6131
     32 O3         -0.6876   -5.7475    3.4786 O.2       1 <0>        -0.6576
     33 O4          1.7036   -6.0834    4.1813 O.2       1 <0>        -0.6482
     34 O5         -0.8039   -0.7319    0.5424 O.3       1 <0>        -0.6303
     35 S1          0.6998   -5.3249    3.4597 S.o2      1 <0>         1.5193
     36 H1         -0.1532   -5.6173   -1.3071 H         1 <0>         0.1426
     37 H2          2.1805   -5.1462   -1.9695 H         1 <0>         0.1398
     38 H3         -0.7676   -5.6946    1.1020 H         1 <0>         0.1599
     39 H4          4.5872   -5.2635   -1.2316 H         1 <0>         0.0574
     40 H5          4.3648   -3.6041   -0.6574 H         1 <0>         0.0629
     41 H6          2.8818    1.8586    0.8858 H         1 <0>         0.0614
     42 H7          3.6725    0.4327    1.5603 H         1 <0>         0.0593
     43 H8          3.4165   -1.8382    0.3259 H         1 <0>         0.0841
     44 H9          2.4035   -1.9216   -1.1111 H         1 <0>         0.0679
     45 H10         1.6443    0.9520    2.8381 H         1 <0>         0.0826
     46 H11         0.6509    0.9155    1.3839 H         1 <0>         0.0383
     47 H12         5.5138   -4.4958    2.8973 H         1 <0>         0.0556
     48 H13         4.7892   -3.1861    1.9666 H         1 <0>         0.0415
     49 H14         1.3647   -2.8230    1.0210 H         1 <0>         0.0851
     50 H15         6.2762   -4.4249    0.4964 H         1 <0>         0.0639
     51 H16         1.8454    0.4816   -0.8972 H         1 <0>         0.0584
     52 H17         4.9808   -7.0038    0.3146 H         1 <0>         0.0401
     53 H18         6.6765   -6.6112    0.6589 H         1 <0>         0.0440
     54 H19         5.5005   -6.7043    1.9843 H         1 <0>         0.0459
     55 H20         4.2296   -0.5171   -1.7602 H         1 <0>         0.0456
     56 H21         3.7904    1.1997   -1.8474 H         1 <0>         0.0366
     57 H22         4.7987    0.6086   -0.5125 H         1 <0>         0.0474
     58 H23        -1.4838   -0.3719    3.3933 H         1 <0>         0.0800
     59 H24        -2.3885   -1.4831    2.3599 H         1 <0>         0.0681
     60 H25        -1.9335   -3.3536    3.9489 H         1 <0>         0.0740
     61 H26        -1.0849   -2.2531    5.0271 H         1 <0>         0.0631
     62 H27        -4.0449   -1.8681    4.1933 H         1 <0>         0.0970
     63 H28        -3.9265   -0.1572    3.7507 H         1 <0>         0.0725
     64 H29        -0.1638   -2.9774    2.1921 H         1 <0>         0.0839
     65 H30         3.1862   -4.7016    3.3805 H         1 <0>         0.4531
     66 H31        -2.8204    0.0236    8.1552 H         1 <0>         0.4798
     67 H32        -4.5077    0.2825    8.4699 H         1 <0>         0.4881
     68 H33        -5.6732   -0.5076    5.1268 H         1 <0>         0.4801
     69 H34        -6.1589   -0.0219    6.7256 H         1 <0>         0.4806
     70 H35        -2.1217   -0.6567    5.9080 H         1 <0>         0.4689
     71 H36         1.6533   -3.3509    4.3757 H         1 <0>         0.4505
     72 H37        -1.6296   -0.6137    0.0262 H         1 <0>         0.4443
@<TRIPOS>BOND
     1    1    2 ar
     2    1    3 ar
     3    2    4 ar
     4    3    6 ar
     5    4    5 ar
     6    4   10 1
     7    5    6 ar
     8    5   24 1
     9    6   35 1
    10    7   15 1
    11    7   30 2
    12    7   34 1
    13    8   23 1
    14    8   25 am
    15    8   31 2
    16    9   26 1
    17    9   27 1
    18    9   28 1
    19   10   16 1
    20   11   13 1
    21   11   17 1
    22   12   15 1
    23   12   17 1
    24   13   25 1
    25   14   16 1
    26   14   24 1
    27   15   25 1
    28   16   18 1
    29   17   19 1
    30   20   21 1
    31   20   22 1
    32   21   23 1
    33   22   28 1
    34   23   29 1
    35   29   35 1
    36   32   35 2
    37   33   35 2
    38    1   36 1
    39    2   37 1
    40    3   38 1
    41   10   39 1
    42   10   40 1
    43   11   41 1
    44   11   42 1
    45   12   43 1
    46   12   44 1
    47   13   45 1
    48   13   46 1
    49   14   47 1
    50   14   48 1
    51   15   49 1
    52   16   50 1
    53   17   51 1
    54   18   52 1
    55   18   53 1
    56   18   54 1
    57   19   55 1
    58   19   56 1
    59   19   57 1
    60   20   58 1
    61   20   59 1
    62   21   60 1
    63   21   61 1
    64   22   62 1
    65   22   63 1
    66   23   64 1
    67   24   65 1
    68   26   66 1
    69   26   67 1
    70   27   68 1
    71   27   69 1
    72   28   70 1
    73   29   71 1
    74   34   72 1
@<TRIPOS>MOLECULE
1dwc_ligand_167
   72    74     0     0     0
SMALL
USER_CHARGES

mmff94s_NoEstat = 78.73
@<TRIPOS>ATOM
      1 C1         -2.8453   -5.2759    6.6308 C.ar      1 <0>        -0.1945
      2 C2         -2.2322   -5.1306    7.8734 C.ar      1 <0>        -0.0294
      3 C3         -2.0700   -5.3199    5.4760 C.ar      1 <0>        -0.0143
      4 C4         -0.8370   -5.0243    7.9679 C.ar      1 <0>        -0.1552
      5 C5         -0.0434   -5.0968    6.8063 C.ar      1 <0>         0.3076
      6 C6         -0.6800   -5.2276    5.5634 C.ar      1 <0>        -0.4908
      7 C7          1.0326   -1.5891   -0.1526 C.2       1 <0>         0.5994
      8 C8          0.8654   -1.4427    3.2413 C.2       1 <0>         0.6462
      9 C9         -5.4636   -2.1736    4.9361 C.cat     1 <0>         0.6305
     10 C10        -0.1907   -4.8756    9.3242 C.3       1 <0>        -0.0319
     11 C11         4.0928   -0.4819    1.7658 C.3       1 <0>        -0.0918
     12 C12         3.2369   -2.4756    0.5172 C.3       1 <0>        -0.0841
     13 C13         2.6673   -0.1389    2.1793 C.3       1 <0>         0.0870
     14 C14         2.0228   -5.0431    8.1470 C.3       1 <0>         0.2023
     15 C15         1.8171   -2.1794    1.0075 C.3       1 <0>         0.0778
     16 C16         1.2359   -4.3091    9.2381 C.3       1 <0>        -0.0746
     17 C17         4.1123   -1.2187    0.4240 C.3       1 <0>        -0.0681
     18 C18         1.2365   -2.7918    9.0202 C.3       1 <0>        -0.0944
     19 C19         5.5413   -1.5810    0.0243 C.3       1 <0>        -0.0918
     20 C20        -2.1115   -1.2711    3.3990 C.3       1 <0>        -0.1192
     21 C21        -1.3133   -2.4479    3.9716 C.3       1 <0>        -0.0916
     22 C22        -3.3821   -0.9970    4.1941 C.3       1 <0>         0.1883
     23 C23        -0.0078   -2.6730    3.2260 C.3       1 <0>         0.1952
     24 N1          1.3401   -4.9869    6.8682 N.pl3     1 <0>        -0.7670
     25 N2          1.7920   -1.3156    2.2000 N.am      1 <0>        -0.4509
     26 N3         -6.2866   -3.2950    4.9445 N.pl3     1 <0>        -0.8477
     27 N4         -5.8471   -1.0460    5.6540 N.pl3     1 <0>        -0.8633
     28 N5         -4.2608   -2.1574    4.2218 N.pl3     1 <0>        -0.7419
     29 N6          0.7961   -3.6905    3.9267 N.pl3     1 <0>        -0.8860
     30 O1          0.8902   -2.1182   -1.2449 O.2       1 <0>        -0.5199
     31 O2          0.7326   -0.6231    4.1542 O.2       1 <0>        -0.6131
     32 O3          1.3500   -6.1855    4.2455 O.2       1 <0>        -0.6576
     33 O4         -0.7339   -5.5366    2.9962 O.2       1 <0>        -0.6482
     34 O5          0.5092   -0.3857    0.1865 O.3       1 <0>        -0.6303
     35 S1          0.2254   -5.2894    4.0556 S.o2      1 <0>         1.5193
     36 H1         -3.9272   -5.3514    6.5631 H         1 <0>         0.1426
     37 H2         -2.8460   -5.0943    8.7703 H         1 <0>         0.1398
     38 H3         -2.5369   -5.4268    4.5019 H         1 <0>         0.1599
     39 H4         -0.8030   -4.2318    9.9673 H         1 <0>         0.0574
     40 H5         -0.1565   -5.8697    9.7881 H         1 <0>         0.0629
     41 H6          4.6862    0.4377    1.6990 H         1 <0>         0.0614
     42 H7          4.5556   -1.1085    2.5390 H         1 <0>         0.0593
     43 H8          3.7056   -3.1781    1.2199 H         1 <0>         0.0841
     44 H9          3.2100   -2.9795   -0.4573 H         1 <0>         0.0679
     45 H10         2.6813    0.3462    3.1608 H         1 <0>         0.0826
     46 H11         2.2276    0.5771    1.4744 H         1 <0>         0.0383
     47 H12         3.0237   -4.6099    8.0414 H         1 <0>         0.0556
     48 H13         2.1566   -6.0940    8.4317 H         1 <0>         0.0415
     49 H14         1.3264   -3.1308    1.2358 H         1 <0>         0.0851
     50 H15         1.7316   -4.4829   10.2012 H         1 <0>         0.0639
     51 H16         3.7098   -0.5563   -0.3523 H         1 <0>         0.0584
     52 H17         0.2205   -2.4295    8.8367 H         1 <0>         0.0401
     53 H18         1.6320   -2.2769    9.9008 H         1 <0>         0.0440
     54 H19         1.8571   -2.5275    8.1588 H         1 <0>         0.0459
     55 H20         5.5642   -2.5489   -0.4852 H         1 <0>         0.0456
     56 H21         5.9547   -0.8262   -0.6513 H         1 <0>         0.0366
     57 H22         6.1838   -1.6417    0.9078 H         1 <0>         0.0474
     58 H23        -1.4838   -0.3719    3.3933 H         1 <0>         0.0800
     59 H24        -2.3885   -1.4831    2.3599 H         1 <0>         0.0681
     60 H25        -1.9335   -3.3536    3.9489 H         1 <0>         0.0740
     61 H26        -1.0849   -2.2531    5.0271 H         1 <0>         0.0631
     62 H27        -3.9391   -0.1546    3.7717 H         1 <0>         0.0970
     63 H28        -3.1287   -0.7498    5.2299 H         1 <0>         0.0725
     64 H29        -0.1638   -2.9774    2.1921 H         1 <0>         0.0839
     65 H30         1.8703   -5.1206    6.0159 H         1 <0>         0.4531
     66 H31        -6.0482   -4.1406    4.4331 H         1 <0>         0.4798
     67 H32        -7.1601   -3.2982    5.4661 H         1 <0>         0.4881
     68 H33        -5.2692   -0.2091    5.6694 H         1 <0>         0.4801
     69 H34        -6.7154   -1.0290    6.1836 H         1 <0>         0.4806
     70 H35        -4.0063   -3.0002    3.7045 H         1 <0>         0.4689
     71 H36         1.8068   -3.5190    3.9555 H         1 <0>         0.4505
     72 H37        -0.0002    0.0133   -0.5509 H         1 <0>         0.4443
@<TRIPOS>BOND
     1    1    2 ar
     2    1    3 ar
     3    2    4 ar
     4    3    6 ar
     5    4    5 ar
     6    4   10 1
     7    5    6 ar
     8    5   24 1
     9    6   35 1
    10    7   15 1
    11    7   30 2
    12    7   34 1
    13    8   23 1
    14    8   25 am
    15    8   31 2
    16    9   26 1
    17    9   27 1
    18    9   28 1
    19   10   16 1
    20   11   13 1
    21   11   17 1
    22   12   15 1
    23   12   17 1
    24   13   25 1
    25   14   16 1
    26   14   24 1
    27   15   25 1
    28   16   18 1
    29   17   19 1
    30   20   21 1
    31   20   22 1
    32   21   23 1
    33   22   28 1
    34   23   29 1
    35   29   35 1
    36   32   35 2
    37   33   35 2
    38    1   36 1
    39    2   37 1
    40    3   38 1
    41   10   39 1
    42   10   40 1
    43   11   41 1
    44   11   42 1
    45   12   43 1
    46   12   44 1
    47   13   45 1
    48   13   46 1
    49   14   47 1
    50   14   48 1
    51   15   49 1
    52   16   50 1
    53   17   51 1
    54   18   52 1
    55   18   53 1
    56   18   54 1
    57   19   55 1
    58   19   56 1
    59   19   57 1
    60   20   58 1
    61   20   59 1
    62   21   60 1
    63   21   61 1
    64   22   62 1
    65   22   63 1
    66   23   64 1
    67   24   65 1
    68   26   66 1
    69   26   67 1
    70   27   68 1
    71   27   69 1
    72   28   70 1
    73   29   71 1
    74   34   72 1
@<TRIPOS>MOLECULE
1dwc_ligand_168
   72    74     0     0     0
SMALL
USER_CHARGES

mmff94s_NoEstat = 78.75
@<TRIPOS>ATOM
      1 C1          5.7632   -1.3100   -5.5823 C.ar      1 <0>        -0.1945
      2 C2          6.9539   -0.6167   -5.3756 C.ar      1 <0>        -0.0294
      3 C3          5.3597   -2.2821   -4.6720 C.ar      1 <0>        -0.0143
      4 C4          7.7516   -0.8953   -4.2564 C.ar      1 <0>        -0.1552
      5 C5          7.3359   -1.8575   -3.3152 C.ar      1 <0>         0.3076
      6 C6          6.1423   -2.5557   -3.5489 C.ar      1 <0>        -0.4908
      7 C7          3.6135    0.1593    2.1008 C.2       1 <0>         0.5994
      8 C8          2.9466   -1.3973   -0.6457 C.2       1 <0>         0.6462
      9 C9         -1.3171   -5.2569   -2.4651 C.cat     1 <0>         0.6305
     10 C10         9.0344   -0.1275   -4.0453 C.3       1 <0>        -0.0319
     11 C11         5.5437    1.3083   -0.3397 C.3       1 <0>        -0.0918
     12 C12         3.3133    2.1108    0.6168 C.3       1 <0>        -0.0841
     13 C13         4.6073    0.4410   -1.1741 C.3       1 <0>         0.0870
     14 C14         9.2390   -1.3229   -1.8447 C.3       1 <0>         0.2023
     15 C15         3.0358    0.6175    0.7719 C.3       1 <0>         0.0778
     16 C16         9.9990   -0.8441   -3.0864 C.3       1 <0>        -0.0746
     17 C17         4.8054    2.4280    0.4117 C.3       1 <0>        -0.0681
     18 C18        10.7449   -1.9914   -3.7772 C.3       1 <0>        -0.0944
     19 C19         4.9662    3.7744   -0.2964 C.3       1 <0>        -0.0918
     20 C20         1.1084   -2.3549   -2.7950 C.3       1 <0>        -0.1192
     21 C21         2.4114   -3.0756   -2.4306 C.3       1 <0>        -0.0916
     22 C22         0.0368   -3.3189   -3.2890 C.3       1 <0>         0.1883
     23 C23         3.4544   -2.1251   -1.8653 C.3       1 <0>         0.1952
     24 N1          8.1090   -2.1598   -2.2012 N.pl3     1 <0>        -0.7670
     25 N2          3.5421   -0.1648   -0.3619 N.am      1 <0>        -0.4509
     26 N3         -1.6338   -6.1837   -1.4774 N.pl3     1 <0>        -0.8477
     27 N4         -2.0118   -5.2856   -3.6695 N.pl3     1 <0>        -0.8633
     28 N5         -0.3162   -4.2987   -2.2718 N.pl3     1 <0>        -0.7419
     29 N6          4.6097   -2.8934   -1.3678 N.pl3     1 <0>        -0.8860
     30 O1          3.3259    0.6306    3.1909 O.2       1 <0>        -0.5199
     31 O2          2.0528   -1.9046    0.0367 O.2       1 <0>        -0.6131
     32 O3          4.7065   -4.6990   -3.2019 O.2       1 <0>        -0.6576
     33 O4          6.7193   -4.3156   -1.7438 O.2       1 <0>        -0.6482
     34 O5          4.5002   -0.8490    1.9151 O.3       1 <0>        -0.6303
     35 S1          5.5613   -3.8008   -2.4493 S.o2      1 <0>         1.5193
     36 H1          5.1521   -1.0945   -6.4547 H         1 <0>         0.1426
     37 H2          7.2627    0.1392   -6.0937 H         1 <0>         0.1398
     38 H3          4.4370   -2.8329   -4.8258 H         1 <0>         0.1599
     39 H4          9.5341    0.0468   -5.0061 H         1 <0>         0.0574
     40 H5          8.7715    0.8524   -3.6268 H         1 <0>         0.0629
     41 H6          6.0425    0.6652    0.3976 H         1 <0>         0.0614
     42 H7          6.3377    1.7214   -0.9727 H         1 <0>         0.0593
     43 H8          2.7432    2.4779   -0.2478 H         1 <0>         0.0841
     44 H9          2.9432    2.6669    1.4876 H         1 <0>         0.0679
     45 H10         4.1201    1.0372   -1.9545 H         1 <0>         0.0826
     46 H11         5.1818   -0.3450   -1.6740 H         1 <0>         0.0383
     47 H12         9.9072   -1.8820   -1.1803 H         1 <0>         0.0556
     48 H13         8.8743   -0.4571   -1.2784 H         1 <0>         0.0415
     49 H14         1.9534    0.4590    0.8478 H         1 <0>         0.0851
     50 H15        10.7641   -0.1245   -2.7701 H         1 <0>         0.0639
     51 H16         5.2803    2.5350    1.3953 H         1 <0>         0.0584
     52 H17        10.3465   -2.1587   -4.7824 H         1 <0>         0.0401
     53 H18        11.8109   -1.7603   -3.8632 H         1 <0>         0.0440
     54 H19        10.6383   -2.9183   -3.2058 H         1 <0>         0.0459
     55 H20         5.9624    4.1882   -0.1137 H         1 <0>         0.0456
     56 H21         4.8337    3.6592   -1.3763 H         1 <0>         0.0366
     57 H22         4.2237    4.4910    0.0673 H         1 <0>         0.0474
     58 H23         0.7341   -1.8112   -1.9193 H         1 <0>         0.0800
     59 H24         1.3022   -1.6154   -3.5806 H         1 <0>         0.0681
     60 H25         2.8001   -3.5947   -3.3165 H         1 <0>         0.0740
     61 H26         2.2014   -3.8505   -1.6824 H         1 <0>         0.0631
     62 H27         0.3698   -3.8564   -4.1826 H         1 <0>         0.0970
     63 H28        -0.8729   -2.7667   -3.5456 H         1 <0>         0.0725
     64 H29         3.7902   -1.3903   -2.5956 H         1 <0>         0.0839
     65 H30         7.7318   -2.8031   -1.5161 H         1 <0>         0.4531
     66 H31        -1.1515   -6.2017   -0.5827 H         1 <0>         0.4798
     67 H32        -2.3627   -6.8776   -1.6264 H         1 <0>         0.4881
     68 H33        -1.8058   -4.6228   -4.4129 H         1 <0>         0.4801
     69 H34        -2.7453   -5.9699   -3.8381 H         1 <0>         0.4806
     70 H35         0.1761   -4.3026   -1.3773 H         1 <0>         0.4689
     71 H36         5.0337   -2.5501   -0.4993 H         1 <0>         0.4505
     72 H37         4.8863   -1.1580    2.7624 H         1 <0>         0.4443
@<TRIPOS>BOND
     1    1    2 ar
     2    1    3 ar
     3    2    4 ar
     4    3    6 ar
     5    4    5 ar
     6    4   10 1
     7    5    6 ar
     8    5   24 1
     9    6   35 1
    10    7   15 1
    11    7   30 2
    12    7   34 1
    13    8   23 1
    14    8   25 am
    15    8   31 2
    16    9   26 1
    17    9   27 1
    18    9   28 1
    19   10   16 1
    20   11   13 1
    21   11   17 1
    22   12   15 1
    23   12   17 1
    24   13   25 1
    25   14   16 1
    26   14   24 1
    27   15   25 1
    28   16   18 1
    29   17   19 1
    30   20   21 1
    31   20   22 1
    32   21   23 1
    33   22   28 1
    34   23   29 1
    35   29   35 1
    36   32   35 2
    37   33   35 2
    38    1   36 1
    39    2   37 1
    40    3   38 1
    41   10   39 1
    42   10   40 1
    43   11   41 1
    44   11   42 1
    45   12   43 1
    46   12   44 1
    47   13   45 1
    48   13   46 1
    49   14   47 1
    50   14   48 1
    51   15   49 1
    52   16   50 1
    53   17   51 1
    54   18   52 1
    55   18   53 1
    56   18   54 1
    57   19   55 1
    58   19   56 1
    59   19   57 1
    60   20   58 1
    61   20   59 1
    62   21   60 1
    63   21   61 1
    64   22   62 1
    65   22   63 1
    66   23   64 1
    67   24   65 1
    68   26   66 1
    69   26   67 1
    70   27   68 1
    71   27   69 1
    72   28   70 1
    73   29   71 1
    74   34   72 1
@<TRIPOS>MOLECULE
1dwc_ligand_169
   72    74     0     0     0
SMALL
USER_CHARGES

mmff94s_NoEstat = 78.79
@<TRIPOS>ATOM
      1 C1         -1.8811   -7.3955    2.4466 C.ar      1 <0>        -0.1945
      2 C2         -2.1524   -7.9421    3.6991 C.ar      1 <0>        -0.0294
      3 C3         -0.8111   -6.5198    2.2891 C.ar      1 <0>        -0.0143
      4 C4         -1.3553   -7.6120    4.8047 C.ar      1 <0>        -0.1552
      5 C5         -0.2531   -6.7489    4.6476 C.ar      1 <0>         0.3076
      6 C6         -0.0057   -6.1967    3.3824 C.ar      1 <0>        -0.4908
      7 C7         -1.1116    1.0220    1.9825 C.2       1 <0>         0.5994
      8 C8          0.8654   -1.4427    3.2413 C.2       1 <0>         0.6462
      9 C9         -4.4840   -2.7250    6.8178 C.cat     1 <0>         0.6305
     10 C10        -1.6602   -8.2210    6.1522 C.3       1 <0>        -0.0319
     11 C11         2.1388    0.2326    0.2266 C.3       1 <0>        -0.0918
     12 C12        -0.3237   -0.1114   -0.0639 C.3       1 <0>        -0.0841
     13 C13         1.9602    0.1751    1.7384 C.3       1 <0>         0.0870
     14 C14         0.4274   -7.1008    6.9892 C.3       1 <0>         0.2023
     15 C15        -0.4871   -0.2577    1.4512 C.3       1 <0>         0.0778
     16 C16        -1.0343   -7.4292    7.3118 C.3       1 <0>        -0.0746
     17 C17         0.8749    0.7635   -0.4549 C.3       1 <0>        -0.0681
     18 C18        -1.8422   -6.1701    7.6463 C.3       1 <0>        -0.0944
     19 C19         1.0498    0.7979   -1.9719 C.3       1 <0>        -0.0918
     20 C20        -2.2331   -3.6727    3.9110 C.3       1 <0>        -0.1192
     21 C21        -1.3133   -2.4479    3.9716 C.3       1 <0>        -0.0916
     22 C22        -3.5726   -3.4201    4.5920 C.3       1 <0>         0.1883
     23 C23        -0.0078   -2.6730    3.2260 C.3       1 <0>         0.1952
     24 N1          0.5495   -6.3981    5.7259 N.pl3     1 <0>        -0.7670
     25 N2          0.7744   -0.5925    2.1333 N.am      1 <0>        -0.4509
     26 N3         -4.2969   -2.3866    8.1540 N.pl3     1 <0>        -0.8477
     27 N4         -5.7720   -2.7293    6.2935 N.pl3     1 <0>        -0.8633
     28 N5         -3.4050   -3.0601    5.9927 N.pl3     1 <0>        -0.7419
     29 N6          0.7961   -3.6905    3.9267 N.pl3     1 <0>        -0.8860
     30 O1         -0.4892    1.9717    2.4341 O.2       1 <0>        -0.5199
     31 O2          1.6103   -1.2468    4.2054 O.2       1 <0>        -0.6131
     32 O3          2.5030   -5.6116    3.7560 O.2       1 <0>        -0.6576
     33 O4          1.3467   -4.8031    1.6743 O.2       1 <0>        -0.6482
     34 O5         -2.4629    0.9691    1.8908 O.3       1 <0>        -0.6303
     35 S1          1.3247   -5.0804    3.0977 S.o2      1 <0>         1.5193
     36 H1         -2.5060   -7.6499    1.5947 H         1 <0>         0.1426
     37 H2         -2.9923   -8.6232    3.8135 H         1 <0>         0.1398
     38 H3         -0.5938   -6.0831    1.3193 H         1 <0>         0.1599
     39 H4         -2.7449   -8.2917    6.2993 H         1 <0>         0.0574
     40 H5         -1.2589   -9.2425    6.1550 H         1 <0>         0.0629
     41 H6          2.9950    0.8726   -0.0171 H         1 <0>         0.0614
     42 H7          2.3692   -0.7717   -0.1514 H         1 <0>         0.0593
     43 H8         -0.1827   -1.1122   -0.4945 H         1 <0>         0.0841
     44 H9         -1.2391    0.2955   -0.5121 H         1 <0>         0.0679
     45 H10         2.8610   -0.2490    2.1940 H         1 <0>         0.0826
     46 H11         1.8403    1.1858    2.1470 H         1 <0>         0.0383
     47 H12         0.8663   -6.4902    7.7861 H         1 <0>         0.0556
     48 H13         1.0113   -8.0280    6.9371 H         1 <0>         0.0415
     49 H14        -1.2253   -1.0427    1.6435 H         1 <0>         0.0851
     50 H15        -1.0595   -8.0597    8.2092 H         1 <0>         0.0639
     51 H16         0.6944    1.7923   -0.1196 H         1 <0>         0.0584
     52 H17        -2.6327   -6.0129    6.9064 H         1 <0>         0.0401
     53 H18        -2.3068   -6.2621    8.6326 H         1 <0>         0.0440
     54 H19        -1.1948   -5.2881    7.6513 H         1 <0>         0.0459
     55 H20         0.1097    0.5485   -2.4730 H         1 <0>         0.0456
     56 H21         1.3618    1.7937   -2.3005 H         1 <0>         0.0366
     57 H22         1.8100    0.0770   -2.2875 H         1 <0>         0.0474
     58 H23        -2.4032   -3.9506    2.8639 H         1 <0>         0.0800
     59 H24        -1.7473   -4.5245    4.4007 H         1 <0>         0.0681
     60 H25        -1.1204   -2.1894    5.0211 H         1 <0>         0.0740
     61 H26        -1.8263   -1.5854    3.5275 H         1 <0>         0.0631
     62 H27        -4.2160   -4.3041    4.5394 H         1 <0>         0.0970
     63 H28        -4.0927   -2.5931    4.0984 H         1 <0>         0.0725
     64 H29        -0.1638   -2.9774    2.1921 H         1 <0>         0.0839
     65 H30         1.3727   -5.8359    5.5480 H         1 <0>         0.4531
     66 H31        -3.3744   -2.3719    8.5807 H         1 <0>         0.4798
     67 H32        -5.0872   -2.1448    8.7473 H         1 <0>         0.4881
     68 H33        -5.9446   -2.9718    5.3209 H         1 <0>         0.4801
     69 H34        -6.5756   -2.4889    6.8690 H         1 <0>         0.4806
     70 H35        -2.4715   -3.0479    6.4062 H         1 <0>         0.4689
     71 H36         1.3354   -3.3564    4.7325 H         1 <0>         0.4505
     72 H37        -2.8855    1.7865    2.2310 H         1 <0>         0.4443
@<TRIPOS>BOND
     1    1    2 ar
     2    1    3 ar
     3    2    4 ar
     4    3    6 ar
     5    4    5 ar
     6    4   10 1
     7    5    6 ar
     8    5   24 1
     9    6   35 1
    10    7   15 1
    11    7   30 2
    12    7   34 1
    13    8   23 1
    14    8   25 am
    15    8   31 2
    16    9   26 1
    17    9   27 1
    18    9   28 1
    19   10   16 1
    20   11   13 1
    21   11   17 1
    22   12   15 1
    23   12   17 1
    24   13   25 1
    25   14   16 1
    26   14   24 1
    27   15   25 1
    28   16   18 1
    29   17   19 1
    30   20   21 1
    31   20   22 1
    32   21   23 1
    33   22   28 1
    34   23   29 1
    35   29   35 1
    36   32   35 2
    37   33   35 2
    38    1   36 1
    39    2   37 1
    40    3   38 1
    41   10   39 1
    42   10   40 1
    43   11   41 1
    44   11   42 1
    45   12   43 1
    46   12   44 1
    47   13   45 1
    48   13   46 1
    49   14   47 1
    50   14   48 1
    51   15   49 1
    52   16   50 1
    53   17   51 1
    54   18   52 1
    55   18   53 1
    56   18   54 1
    57   19   55 1
    58   19   56 1
    59   19   57 1
    60   20   58 1
    61   20   59 1
    62   21   60 1
    63   21   61 1
    64   22   62 1
    65   22   63 1
    66   23   64 1
    67   24   65 1
    68   26   66 1
    69   26   67 1
    70   27   68 1
    71   27   69 1
    72   28   70 1
    73   29   71 1
    74   34   72 1
@<TRIPOS>MOLECULE
1dwc_ligand_170
   72    74     0     0     0
SMALL
USER_CHARGES

mmff94s_NoEstat = 78.83
@<TRIPOS>ATOM
      1 C1         -3.5298   -6.2535    4.3510 C.ar      1 <0>        -0.1945
      2 C2         -4.3901   -6.3642    3.2606 C.ar      1 <0>        -0.0294
      3 C3         -2.9628   -5.0220    4.6653 C.ar      1 <0>        -0.0143
      4 C4         -4.6918   -5.2398    2.4790 C.ar      1 <0>        -0.1552
      5 C5         -4.0992   -3.9956    2.7730 C.ar      1 <0>         0.3076
      6 C6         -3.2482   -3.9013    3.8837 C.ar      1 <0>        -0.4908
      7 C7          3.6572    0.2351    4.2205 C.2       1 <0>         0.5994
      8 C8          0.8654   -1.4427    3.2413 C.2       1 <0>         0.6462
      9 C9          2.0746   -5.2044   -1.4852 C.cat     1 <0>         0.6305
     10 C10        -5.6204   -5.3796    1.2965 C.3       1 <0>        -0.0319
     11 C11         3.8985   -3.4862    3.6166 C.3       1 <0>        -0.0918
     12 C12         4.5525   -1.3270    2.5319 C.3       1 <0>        -0.0841
     13 C13         2.6738   -2.8056    4.2145 C.3       1 <0>         0.0870
     14 C14        -5.1062   -2.9837    0.7664 C.3       1 <0>         0.2023
     15 C15         3.2751   -0.6689    3.0601 C.3       1 <0>         0.0778
     16 C16        -6.2232   -4.0248    0.8929 C.3       1 <0>        -0.0746
     17 C17         5.0385   -2.4845    3.4144 C.3       1 <0>        -0.0681
     18 C18        -7.0091   -4.1462   -0.4097 C.3       1 <0>        -0.0944
     19 C19         6.2563   -3.1661    2.7936 C.3       1 <0>        -0.0918
     20 C20         0.0249   -2.8727    0.7002 C.3       1 <0>        -0.1192
     21 C21         0.3004   -3.5693    2.0376 C.3       1 <0>        -0.0916
     22 C22         0.2602   -3.7963   -0.4886 C.3       1 <0>         0.1883
     23 C23        -0.0078   -2.6730    3.2260 C.3       1 <0>         0.1952
     24 N1         -4.3801   -2.8644    2.0167 N.pl3     1 <0>        -0.7670
     25 N2          2.2374   -1.6470    3.4280 N.am      1 <0>        -0.4509
     26 N3          3.3877   -5.6631   -1.4955 N.pl3     1 <0>        -0.8477
     27 N4          1.1890   -5.6621   -2.4548 N.pl3     1 <0>        -0.8633
     28 N5          1.6278   -4.2942   -0.5212 N.pl3     1 <0>        -0.7419
     29 N6         -1.3760   -2.1385    3.1042 N.pl3     1 <0>        -0.8860
     30 O1          3.6315   -0.0869    5.3991 O.2       1 <0>        -0.5199
     31 O2          0.3435   -0.3338    3.0981 O.2       1 <0>        -0.6131
     32 O3         -3.5166   -1.3454    4.2968 O.2       1 <0>        -0.6576
     33 O4         -1.7865   -2.6277    5.5955 O.2       1 <0>        -0.6482
     34 O5          4.0314    1.4581    3.7715 O.3       1 <0>        -0.6303
     35 S1         -2.5018   -2.3799    4.3583 S.o2      1 <0>         1.5193
     36 H1         -3.3049   -7.1268    4.9571 H         1 <0>         0.1426
     37 H2         -4.8309   -7.3297    3.0242 H         1 <0>         0.1398
     38 H3         -2.2961   -4.9225    5.5159 H         1 <0>         0.1599
     39 H4         -5.0522   -5.8078    0.4610 H         1 <0>         0.0574
     40 H5         -6.4331   -6.0751    1.5397 H         1 <0>         0.0629
     41 H6          4.2244   -4.2993    4.2761 H         1 <0>         0.0614
     42 H7          3.6296   -3.9402    2.6542 H         1 <0>         0.0593
     43 H8          4.3500   -1.7152    1.5243 H         1 <0>         0.0841
     44 H9          5.3525   -0.5834    2.4253 H         1 <0>         0.0679
     45 H10         1.8623   -3.5349    4.3059 H         1 <0>         0.0826
     46 H11         2.8945   -2.4435    5.2260 H         1 <0>         0.0383
     47 H12        -4.4091   -3.2616   -0.0338 H         1 <0>         0.0556
     48 H13        -5.5272   -2.0065    0.5046 H         1 <0>         0.0415
     49 H14         2.8873    0.0006    2.2858 H         1 <0>         0.0851
     50 H15        -6.9191   -3.7005    1.6784 H         1 <0>         0.0639
     51 H16         5.3432   -2.0892    4.3913 H         1 <0>         0.0584
     52 H17        -7.6317   -3.2604   -0.5670 H         1 <0>         0.0401
     53 H18        -6.3292   -4.2450   -1.2612 H         1 <0>         0.0440
     54 H19        -7.6604   -5.0250   -0.3851 H         1 <0>         0.0459
     55 H20         6.5585   -2.6519    1.8763 H         1 <0>         0.0456
     56 H21         7.1004   -3.1536    3.4896 H         1 <0>         0.0366
     57 H22         6.0293   -4.2073    2.5458 H         1 <0>         0.0474
     58 H23        -1.0105   -2.5120    0.6824 H         1 <0>         0.0800
     59 H24         0.6776   -1.9980    0.5976 H         1 <0>         0.0681
     60 H25         1.3460   -3.9033    2.0652 H         1 <0>         0.0740
     61 H26        -0.3175   -4.4733    2.1109 H         1 <0>         0.0631
     62 H27         0.0590   -3.2831   -1.4342 H         1 <0>         0.0970
     63 H28        -0.4054   -4.6631   -0.4257 H         1 <0>         0.0725
     64 H29         0.1003   -3.1895    4.1787 H         1 <0>         0.0839
     65 H30        -3.8731   -2.0116    2.2195 H         1 <0>         0.4531
     66 H31         4.0702   -5.3548   -0.8082 H         1 <0>         0.4798
     67 H32         3.7046   -6.3246   -2.2006 H         1 <0>         0.4881
     68 H33         0.2221   -5.3473   -2.4765 H         1 <0>         0.4801
     69 H34         1.4849   -6.3248   -3.1675 H         1 <0>         0.4806
     70 H35         2.3012   -3.9765    0.1776 H         1 <0>         0.4689
     71 H36        -1.4850   -1.3266    2.4871 H         1 <0>         0.4505
     72 H37         4.2804    2.0579    4.5068 H         1 <0>         0.4443
@<TRIPOS>BOND
     1    1    2 ar
     2    1    3 ar
     3    2    4 ar
     4    3    6 ar
     5    4    5 ar
     6    4   10 1
     7    5    6 ar
     8    5   24 1
     9    6   35 1
    10    7   15 1
    11    7   30 2
    12    7   34 1
    13    8   23 1
    14    8   25 am
    15    8   31 2
    16    9   26 1
    17    9   27 1
    18    9   28 1
    19   10   16 1
    20   11   13 1
    21   11   17 1
    22   12   15 1
    23   12   17 1
    24   13   25 1
    25   14   16 1
    26   14   24 1
    27   15   25 1
    28   16   18 1
    29   17   19 1
    30   20   21 1
    31   20   22 1
    32   21   23 1
    33   22   28 1
    34   23   29 1
    35   29   35 1
    36   32   35 2
    37   33   35 2
    38    1   36 1
    39    2   37 1
    40    3   38 1
    41   10   39 1
    42   10   40 1
    43   11   41 1
    44   11   42 1
    45   12   43 1
    46   12   44 1
    47   13   45 1
    48   13   46 1
    49   14   47 1
    50   14   48 1
    51   15   49 1
    52   16   50 1
    53   17   51 1
    54   18   52 1
    55   18   53 1
    56   18   54 1
    57   19   55 1
    58   19   56 1
    59   19   57 1
    60   20   58 1
    61   20   59 1
    62   21   60 1
    63   21   61 1
    64   22   62 1
    65   22   63 1
    66   23   64 1
    67   24   65 1
    68   26   66 1
    69   26   67 1
    70   27   68 1
    71   27   69 1
    72   28   70 1
    73   29   71 1
    74   34   72 1
@<TRIPOS>MOLECULE
1dwc_ligand_171
   72    74     0     0     0
SMALL
USER_CHARGES

mmff94s_NoEstat = 78.88
@<TRIPOS>ATOM
      1 C1         -2.8852   -6.7028    4.6044 C.ar      1 <0>        -0.1945
      2 C2         -2.7574   -6.8464    5.9843 C.ar      1 <0>        -0.0294
      3 C3         -1.8117   -6.2329    3.8538 C.ar      1 <0>        -0.0143
      4 C4         -1.5535   -6.5163    6.6233 C.ar      1 <0>        -0.1552
      5 C5         -0.4531   -6.0672    5.8671 C.ar      1 <0>         0.3076
      6 C6         -0.6063   -5.9145    4.4813 C.ar      1 <0>        -0.4908
      7 C7          0.0474   -1.6003   -0.0563 C.2       1 <0>         0.5994
      8 C8          0.8654   -1.4427    3.2413 C.2       1 <0>         0.6462
      9 C9         -5.3792    0.5120    4.1450 C.cat     1 <0>         0.6305
     10 C10        -1.4319   -6.6865    8.1186 C.3       1 <0>        -0.0319
     11 C11         2.7802    0.7752    1.0208 C.3       1 <0>        -0.0918
     12 C12         2.5085   -1.4277   -0.1368 C.3       1 <0>        -0.0841
     13 C13         1.5404    0.4804    1.8554 C.3       1 <0>         0.0870
     14 C14         0.9870   -6.0549    7.8660 C.3       1 <0>         0.2023
     15 C15         1.3165   -1.7600    0.7646 C.3       1 <0>         0.0778
     16 C16        -0.2760   -5.8653    8.7129 C.3       1 <0>        -0.0746
     17 C17         2.7020    0.0809   -0.3413 C.3       1 <0>        -0.0681
     18 C18        -0.6451   -4.3852    8.8648 C.3       1 <0>        -0.0944
     19 C19         3.9570    0.3602   -1.1659 C.3       1 <0>        -0.0918
     20 C20        -2.1115   -1.2711    3.3990 C.3       1 <0>        -0.1192
     21 C21        -1.3133   -2.4479    3.9716 C.3       1 <0>        -0.0916
     22 C22        -3.3821   -0.9970    4.1941 C.3       1 <0>         0.1883
     23 C23        -0.0078   -2.6730    3.2260 C.3       1 <0>         0.1952
     24 N1          0.7493   -5.7256    6.4733 N.pl3     1 <0>        -0.7670
     25 N2          1.2915   -0.9578    1.9994 N.am      1 <0>        -0.4509
     26 N3         -6.0873    1.5705    3.5854 N.pl3     1 <0>        -0.8477
     27 N4         -5.9120   -0.1549    5.2429 N.pl3     1 <0>        -0.8633
     28 N5         -4.1449    0.1056    3.6268 N.pl3     1 <0>        -0.7419
     29 N6          0.7961   -3.6905    3.9267 N.pl3     1 <0>        -0.8860
     30 O1         -0.1814   -2.1703   -1.1128 O.2       1 <0>        -0.5199
     31 O2          1.1650   -0.9321    4.3240 O.2       1 <0>        -0.6131
     32 O3          1.9178   -6.0078    3.8522 O.2       1 <0>        -0.6576
     33 O4          0.2309   -5.3989    2.0892 O.2       1 <0>        -0.6482
     34 O5         -0.8039   -0.7319    0.5424 O.3       1 <0>        -0.6303
     35 S1          0.6998   -5.3249    3.4597 S.o2      1 <0>         1.5193
     36 H1         -3.8225   -6.9542    4.1154 H         1 <0>         0.1426
     37 H2         -3.6024   -7.2116    6.5633 H         1 <0>         0.1398
     38 H3         -1.9015   -6.1112    2.7788 H         1 <0>         0.1599
     39 H4         -2.3718   -6.4061    8.6096 H         1 <0>         0.0574
     40 H5         -1.2585   -7.7513    8.3199 H         1 <0>         0.0629
     41 H6          2.8818    1.8586    0.8858 H         1 <0>         0.0614
     42 H7          3.6725    0.4327    1.5603 H         1 <0>         0.0593
     43 H8          3.4165   -1.8382    0.3259 H         1 <0>         0.0841
     44 H9          2.4035   -1.9216   -1.1111 H         1 <0>         0.0679
     45 H10         1.6443    0.9520    2.8381 H         1 <0>         0.0826
     46 H11         0.6509    0.9155    1.3839 H         1 <0>         0.0383
     47 H12         1.8016   -5.4313    8.2507 H         1 <0>         0.0556
     48 H13         1.3225   -7.0973    7.9316 H         1 <0>         0.0415
     49 H14         1.3647   -2.8230    1.0210 H         1 <0>         0.0851
     50 H15        -0.0760   -6.2391    9.7247 H         1 <0>         0.0639
     51 H16         1.8454    0.4816   -0.8972 H         1 <0>         0.0584
     52 H17        -1.6128   -4.1805    8.3973 H         1 <0>         0.0401
     53 H18        -0.7085   -4.1113    9.9222 H         1 <0>         0.0440
     54 H19         0.1084   -3.7505    8.3890 H         1 <0>         0.0459
     55 H20         4.2296   -0.5171   -1.7602 H         1 <0>         0.0456
     56 H21         3.7904    1.1997   -1.8474 H         1 <0>         0.0366
     57 H22         4.7987    0.6086   -0.5125 H         1 <0>         0.0474
     58 H23        -1.4838   -0.3719    3.3933 H         1 <0>         0.0800
     59 H24        -2.3885   -1.4831    2.3599 H         1 <0>         0.0681
     60 H25        -1.9335   -3.3536    3.9489 H         1 <0>         0.0740
     61 H26        -1.0849   -2.2531    5.0271 H         1 <0>         0.0631
     62 H27        -3.1519   -0.7547    5.2365 H         1 <0>         0.0970
     63 H28        -4.0259   -1.8823    4.1866 H         1 <0>         0.0725
     64 H29        -0.1638   -2.9774    2.1921 H         1 <0>         0.0839
     65 H30         1.5327   -5.4807    5.8802 H         1 <0>         0.4531
     66 H31        -5.7362    2.0880    2.7841 H         1 <0>         0.4798
     67 H32        -6.9840    1.8599    3.9689 H         1 <0>         0.4881
     68 H33        -5.4209   -0.9328    5.6766 H         1 <0>         0.4801
     69 H34        -6.8078    0.1174    5.6406 H         1 <0>         0.4806
     70 H35        -3.7797    0.6144    2.8203 H         1 <0>         0.4689
     71 H36         1.6533   -3.3509    4.3757 H         1 <0>         0.4505
     72 H37        -1.6296   -0.6137    0.0262 H         1 <0>         0.4443
@<TRIPOS>BOND
     1    1    2 ar
     2    1    3 ar
     3    2    4 ar
     4    3    6 ar
     5    4    5 ar
     6    4   10 1
     7    5    6 ar
     8    5   24 1
     9    6   35 1
    10    7   15 1
    11    7   30 2
    12    7   34 1
    13    8   23 1
    14    8   25 am
    15    8   31 2
    16    9   26 1
    17    9   27 1
    18    9   28 1
    19   10   16 1
    20   11   13 1
    21   11   17 1
    22   12   15 1
    23   12   17 1
    24   13   25 1
    25   14   16 1
    26   14   24 1
    27   15   25 1
    28   16   18 1
    29   17   19 1
    30   20   21 1
    31   20   22 1
    32   21   23 1
    33   22   28 1
    34   23   29 1
    35   29   35 1
    36   32   35 2
    37   33   35 2
    38    1   36 1
    39    2   37 1
    40    3   38 1
    41   10   39 1
    42   10   40 1
    43   11   41 1
    44   11   42 1
    45   12   43 1
    46   12   44 1
    47   13   45 1
    48   13   46 1
    49   14   47 1
    50   14   48 1
    51   15   49 1
    52   16   50 1
    53   17   51 1
    54   18   52 1
    55   18   53 1
    56   18   54 1
    57   19   55 1
    58   19   56 1
    59   19   57 1
    60   20   58 1
    61   20   59 1
    62   21   60 1
    63   21   61 1
    64   22   62 1
    65   22   63 1
    66   23   64 1
    67   24   65 1
    68   26   66 1
    69   26   67 1
    70   27   68 1
    71   27   69 1
    72   28   70 1
    73   29   71 1
    74   34   72 1
@<TRIPOS>MOLECULE
1dwc_ligand_172
   72    74     0     0     0
SMALL
USER_CHARGES

mmff94s_NoEstat = 78.90
@<TRIPOS>ATOM
      1 C1         -1.8811   -7.3955    2.4466 C.ar      1 <0>        -0.1945
      2 C2         -2.1524   -7.9421    3.6991 C.ar      1 <0>        -0.0294
      3 C3         -0.8111   -6.5198    2.2891 C.ar      1 <0>        -0.0143
      4 C4         -1.3553   -7.6120    4.8047 C.ar      1 <0>        -0.1552
      5 C5         -0.2531   -6.7489    4.6476 C.ar      1 <0>         0.3076
      6 C6         -0.0057   -6.1967    3.3824 C.ar      1 <0>        -0.4908
      7 C7         -0.2549    0.4306    0.6330 C.2       1 <0>         0.5994
      8 C8          0.8654   -1.4427    3.2413 C.2       1 <0>         0.6462
      9 C9         -5.3792    0.5120    4.1450 C.cat     1 <0>         0.6305
     10 C10        -1.6602   -8.2210    6.1522 C.3       1 <0>        -0.0319
     11 C11         3.3665   -0.6443    0.6676 C.3       1 <0>        -0.0918
     12 C12         1.2181   -1.2005   -0.4907 C.3       1 <0>        -0.0841
     13 C13         2.5847   -0.2704    1.9206 C.3       1 <0>         0.0870
     14 C14         0.4274   -7.1008    6.9892 C.3       1 <0>         0.2023
     15 C15         0.4427   -0.9096    0.7969 C.3       1 <0>         0.0778
     16 C16        -1.0343   -7.4292    7.3118 C.3       1 <0>        -0.0746
     17 C17         2.5288   -0.4088   -0.5919 C.3       1 <0>        -0.0681
     18 C18        -1.8422   -6.1701    7.6463 C.3       1 <0>        -0.0944
     19 C19         3.3078   -0.8065   -1.8442 C.3       1 <0>        -0.0918
     20 C20        -2.1115   -1.2711    3.3990 C.3       1 <0>        -0.1192
     21 C21        -1.3133   -2.4479    3.9716 C.3       1 <0>        -0.0916
     22 C22        -3.3821   -0.9970    4.1941 C.3       1 <0>         0.1883
     23 C23        -0.0078   -2.6730    3.2260 C.3       1 <0>         0.1952
     24 N1          0.5495   -6.3981    5.7259 N.pl3     1 <0>        -0.7670
     25 N2          1.2915   -0.9578    1.9994 N.am      1 <0>        -0.4509
     26 N3         -6.0873    1.5705    3.5854 N.pl3     1 <0>        -0.8477
     27 N4         -5.9120   -0.1549    5.2429 N.pl3     1 <0>        -0.8633
     28 N5         -4.1449    0.1056    3.6268 N.pl3     1 <0>        -0.7419
     29 N6          0.7961   -3.6905    3.9267 N.pl3     1 <0>        -0.8860
     30 O1          0.1931    1.5051    1.0045 O.2       1 <0>        -0.5199
     31 O2          1.1650   -0.9321    4.3240 O.2       1 <0>        -0.6131
     32 O3          2.5030   -5.6116    3.7560 O.2       1 <0>        -0.6576
     33 O4          1.3467   -4.8031    1.6743 O.2       1 <0>        -0.6482
     34 O5         -1.4521    0.2749    0.0168 O.3       1 <0>        -0.6303
     35 S1          1.3247   -5.0804    3.0977 S.o2      1 <0>         1.5193
     36 H1         -2.5060   -7.6499    1.5947 H         1 <0>         0.1426
     37 H2         -2.9923   -8.6232    3.8135 H         1 <0>         0.1398
     38 H3         -0.5938   -6.0831    1.3193 H         1 <0>         0.1599
     39 H4         -2.7449   -8.2917    6.2993 H         1 <0>         0.0574
     40 H5         -1.2589   -9.2425    6.1550 H         1 <0>         0.0629
     41 H6          4.2893   -0.0541    0.6219 H         1 <0>         0.0614
     42 H7          3.6617   -1.6999    0.7239 H         1 <0>         0.0593
     43 H8          1.4535   -2.2733   -0.5175 H         1 <0>         0.0841
     44 H9          0.5944   -0.9953   -1.3701 H         1 <0>         0.0679
     45 H10         3.1909   -0.4908    2.8053 H         1 <0>         0.0826
     46 H11         2.3782    0.8066    1.9340 H         1 <0>         0.0383
     47 H12         0.8663   -6.4902    7.7861 H         1 <0>         0.0556
     48 H13         1.0113   -8.0280    6.9371 H         1 <0>         0.0415
     49 H14        -0.3616   -1.6465    0.8882 H         1 <0>         0.0851
     50 H15        -1.0595   -8.0597    8.2092 H         1 <0>         0.0639
     51 H16         2.2982    0.6607   -0.6719 H         1 <0>         0.0584
     52 H17        -2.6327   -6.0129    6.9064 H         1 <0>         0.0401
     53 H18        -2.3068   -6.2621    8.6326 H         1 <0>         0.0440
     54 H19        -1.1948   -5.2881    7.6513 H         1 <0>         0.0459
     55 H20         2.6382   -1.2449   -2.5902 H         1 <0>         0.0456
     56 H21         3.7937    0.0674   -2.2885 H         1 <0>         0.0366
     57 H22         4.0794   -1.5424   -1.5992 H         1 <0>         0.0474
     58 H23        -1.4838   -0.3719    3.3933 H         1 <0>         0.0800
     59 H24        -2.3885   -1.4831    2.3599 H         1 <0>         0.0681
     60 H25        -1.9335   -3.3536    3.9489 H         1 <0>         0.0740
     61 H26        -1.0849   -2.2531    5.0271 H         1 <0>         0.0631
     62 H27        -3.1519   -0.7547    5.2365 H         1 <0>         0.0970
     63 H28        -4.0259   -1.8823    4.1866 H         1 <0>         0.0725
     64 H29        -0.1638   -2.9774    2.1921 H         1 <0>         0.0839
     65 H30         1.3727   -5.8359    5.5480 H         1 <0>         0.4531
     66 H31        -5.7362    2.0880    2.7841 H         1 <0>         0.4798
     67 H32        -6.9840    1.8599    3.9689 H         1 <0>         0.4881
     68 H33        -5.4209   -0.9328    5.6766 H         1 <0>         0.4801
     69 H34        -6.8078    0.1174    5.6406 H         1 <0>         0.4806
     70 H35        -3.7797    0.6144    2.8203 H         1 <0>         0.4689
     71 H36         1.3354   -3.3564    4.7325 H         1 <0>         0.4505
     72 H37        -1.9197    1.1298   -0.0968 H         1 <0>         0.4443
@<TRIPOS>BOND
     1    1    2 ar
     2    1    3 ar
     3    2    4 ar
     4    3    6 ar
     5    4    5 ar
     6    4   10 1
     7    5    6 ar
     8    5   24 1
     9    6   35 1
    10    7   15 1
    11    7   30 2
    12    7   34 1
    13    8   23 1
    14    8   25 am
    15    8   31 2
    16    9   26 1
    17    9   27 1
    18    9   28 1
    19   10   16 1
    20   11   13 1
    21   11   17 1
    22   12   15 1
    23   12   17 1
    24   13   25 1
    25   14   16 1
    26   14   24 1
    27   15   25 1
    28   16   18 1
    29   17   19 1
    30   20   21 1
    31   20   22 1
    32   21   23 1
    33   22   28 1
    34   23   29 1
    35   29   35 1
    36   32   35 2
    37   33   35 2
    38    1   36 1
    39    2   37 1
    40    3   38 1
    41   10   39 1
    42   10   40 1
    43   11   41 1
    44   11   42 1
    45   12   43 1
    46   12   44 1
    47   13   45 1
    48   13   46 1
    49   14   47 1
    50   14   48 1
    51   15   49 1
    52   16   50 1
    53   17   51 1
    54   18   52 1
    55   18   53 1
    56   18   54 1
    57   19   55 1
    58   19   56 1
    59   19   57 1
    60   20   58 1
    61   20   59 1
    62   21   60 1
    63   21   61 1
    64   22   62 1
    65   22   63 1
    66   23   64 1
    67   24   65 1
    68   26   66 1
    69   26   67 1
    70   27   68 1
    71   27   69 1
    72   28   70 1
    73   29   71 1
    74   34   72 1
@<TRIPOS>MOLECULE
1dwc_ligand_173
   72    74     0     0     0
SMALL
USER_CHARGES

mmff94s_NoEstat = 78.92
@<TRIPOS>ATOM
      1 C1         -1.8811   -7.3955    2.4466 C.ar      1 <0>        -0.1945
      2 C2         -2.1524   -7.9421    3.6991 C.ar      1 <0>        -0.0294
      3 C3         -0.8111   -6.5198    2.2891 C.ar      1 <0>        -0.0143
      4 C4         -1.3553   -7.6120    4.8047 C.ar      1 <0>        -0.1552
      5 C5         -0.2531   -6.7489    4.6476 C.ar      1 <0>         0.3076
      6 C6         -0.0057   -6.1967    3.3824 C.ar      1 <0>        -0.4908
      7 C7         -0.2549    0.4306    0.6330 C.2       1 <0>         0.5994
      8 C8          0.8654   -1.4427    3.2413 C.2       1 <0>         0.6462
      9 C9         -5.4636   -2.1736    4.9361 C.cat     1 <0>         0.6305
     10 C10        -1.6602   -8.2210    6.1522 C.3       1 <0>        -0.0319
     11 C11         3.3665   -0.6443    0.6676 C.3       1 <0>        -0.0918
     12 C12         1.2181   -1.2005   -0.4907 C.3       1 <0>        -0.0841
     13 C13         2.5847   -0.2704    1.9206 C.3       1 <0>         0.0870
     14 C14         0.4274   -7.1008    6.9892 C.3       1 <0>         0.2023
     15 C15         0.4427   -0.9096    0.7969 C.3       1 <0>         0.0778
     16 C16        -1.0343   -7.4292    7.3118 C.3       1 <0>        -0.0746
     17 C17         2.5288   -0.4088   -0.5919 C.3       1 <0>        -0.0681
     18 C18        -1.8422   -6.1701    7.6463 C.3       1 <0>        -0.0944
     19 C19         3.3078   -0.8065   -1.8442 C.3       1 <0>        -0.0918
     20 C20        -2.1115   -1.2711    3.3990 C.3       1 <0>        -0.1192
     21 C21        -1.3133   -2.4479    3.9716 C.3       1 <0>        -0.0916
     22 C22        -3.3821   -0.9970    4.1941 C.3       1 <0>         0.1883
     23 C23        -0.0078   -2.6730    3.2260 C.3       1 <0>         0.1952
     24 N1          0.5495   -6.3981    5.7259 N.pl3     1 <0>        -0.7670
     25 N2          1.2915   -0.9578    1.9994 N.am      1 <0>        -0.4509
     26 N3         -6.2866   -3.2950    4.9445 N.pl3     1 <0>        -0.8477
     27 N4         -5.8471   -1.0460    5.6540 N.pl3     1 <0>        -0.8633
     28 N5         -4.2608   -2.1574    4.2218 N.pl3     1 <0>        -0.7419
     29 N6          0.7961   -3.6905    3.9267 N.pl3     1 <0>        -0.8860
     30 O1         -1.0223    0.7161   -0.2742 O.2       1 <0>        -0.5199
     31 O2          1.1650   -0.9321    4.3240 O.2       1 <0>        -0.6131
     32 O3          2.5030   -5.6116    3.7560 O.2       1 <0>        -0.6576
     33 O4          1.3467   -4.8031    1.6743 O.2       1 <0>        -0.6482
     34 O5          0.0918    1.2764    1.6339 O.3       1 <0>        -0.6303
     35 S1          1.3247   -5.0804    3.0977 S.o2      1 <0>         1.5193
     36 H1         -2.5060   -7.6499    1.5947 H         1 <0>         0.1426
     37 H2         -2.9923   -8.6232    3.8135 H         1 <0>         0.1398
     38 H3         -0.5938   -6.0831    1.3193 H         1 <0>         0.1599
     39 H4         -2.7449   -8.2917    6.2993 H         1 <0>         0.0574
     40 H5         -1.2589   -9.2425    6.1550 H         1 <0>         0.0629
     41 H6          4.2893   -0.0541    0.6219 H         1 <0>         0.0614
     42 H7          3.6617   -1.6999    0.7239 H         1 <0>         0.0593
     43 H8          1.4535   -2.2733   -0.5175 H         1 <0>         0.0841
     44 H9          0.5944   -0.9953   -1.3701 H         1 <0>         0.0679
     45 H10         3.1909   -0.4908    2.8053 H         1 <0>         0.0826
     46 H11         2.3782    0.8066    1.9340 H         1 <0>         0.0383
     47 H12         0.8663   -6.4902    7.7861 H         1 <0>         0.0556
     48 H13         1.0113   -8.0280    6.9371 H         1 <0>         0.0415
     49 H14        -0.3616   -1.6465    0.8882 H         1 <0>         0.0851
     50 H15        -1.0595   -8.0597    8.2092 H         1 <0>         0.0639
     51 H16         2.2982    0.6607   -0.6719 H         1 <0>         0.0584
     52 H17        -2.6327   -6.0129    6.9064 H         1 <0>         0.0401
     53 H18        -2.3068   -6.2621    8.6326 H         1 <0>         0.0440
     54 H19        -1.1948   -5.2881    7.6513 H         1 <0>         0.0459
     55 H20         2.6382   -1.2449   -2.5902 H         1 <0>         0.0456
     56 H21         3.7937    0.0674   -2.2885 H         1 <0>         0.0366
     57 H22         4.0794   -1.5424   -1.5992 H         1 <0>         0.0474
     58 H23        -1.4838   -0.3719    3.3933 H         1 <0>         0.0800
     59 H24        -2.3885   -1.4831    2.3599 H         1 <0>         0.0681
     60 H25        -1.9335   -3.3536    3.9489 H         1 <0>         0.0740
     61 H26        -1.0849   -2.2531    5.0271 H         1 <0>         0.0631
     62 H27        -3.9391   -0.1546    3.7717 H         1 <0>         0.0970
     63 H28        -3.1287   -0.7498    5.2299 H         1 <0>         0.0725
     64 H29        -0.1638   -2.9774    2.1921 H         1 <0>         0.0839
     65 H30         1.3727   -5.8359    5.5480 H         1 <0>         0.4531
     66 H31        -6.0482   -4.1406    4.4331 H         1 <0>         0.4798
     67 H32        -7.1601   -3.2982    5.4661 H         1 <0>         0.4881
     68 H33        -5.2692   -0.2091    5.6694 H         1 <0>         0.4801
     69 H34        -6.7154   -1.0290    6.1836 H         1 <0>         0.4806
     70 H35        -4.0063   -3.0002    3.7045 H         1 <0>         0.4689
     71 H36         1.3354   -3.3564    4.7325 H         1 <0>         0.4505
     72 H37        -0.3474    2.1490    1.5448 H         1 <0>         0.4443
@<TRIPOS>BOND
     1    1    2 ar
     2    1    3 ar
     3    2    4 ar
     4    3    6 ar
     5    4    5 ar
     6    4   10 1
     7    5    6 ar
     8    5   24 1
     9    6   35 1
    10    7   15 1
    11    7   30 2
    12    7   34 1
    13    8   23 1
    14    8   25 am
    15    8   31 2
    16    9   26 1
    17    9   27 1
    18    9   28 1
    19   10   16 1
    20   11   13 1
    21   11   17 1
    22   12   15 1
    23   12   17 1
    24   13   25 1
    25   14   16 1
    26   14   24 1
    27   15   25 1
    28   16   18 1
    29   17   19 1
    30   20   21 1
    31   20   22 1
    32   21   23 1
    33   22   28 1
    34   23   29 1
    35   29   35 1
    36   32   35 2
    37   33   35 2
    38    1   36 1
    39    2   37 1
    40    3   38 1
    41   10   39 1
    42   10   40 1
    43   11   41 1
    44   11   42 1
    45   12   43 1
    46   12   44 1
    47   13   45 1
    48   13   46 1
    49   14   47 1
    50   14   48 1
    51   15   49 1
    52   16   50 1
    53   17   51 1
    54   18   52 1
    55   18   53 1
    56   18   54 1
    57   19   55 1
    58   19   56 1
    59   19   57 1
    60   20   58 1
    61   20   59 1
    62   21   60 1
    63   21   61 1
    64   22   62 1
    65   22   63 1
    66   23   64 1
    67   24   65 1
    68   26   66 1
    69   26   67 1
    70   27   68 1
    71   27   69 1
    72   28   70 1
    73   29   71 1
    74   34   72 1
@<TRIPOS>MOLECULE
1dwc_ligand_174
   72    74     0     0     0
SMALL
USER_CHARGES

mmff94s_NoEstat = 78.96
@<TRIPOS>ATOM
      1 C1         -0.4870   -4.5759    0.1636 C.ar      1 <0>        -0.1945
      2 C2          0.3882   -5.3449    0.9279 C.ar      1 <0>        -0.0294
      3 C3         -0.0840   -4.0945   -1.0785 C.ar      1 <0>        -0.0143
      4 C4          1.6731   -5.6407    0.4508 C.ar      1 <0>        -0.1552
      5 C5          2.0990   -5.1329   -0.7928 C.ar      1 <0>         0.3076
      6 C6          1.1982   -4.3739   -1.5539 C.ar      1 <0>        -0.4908
      7 C7          2.6281   -1.3042    2.5638 C.2       1 <0>         0.5994
      8 C8          2.9466   -1.3973   -0.6457 C.2       1 <0>         0.6462
      9 C9          6.7753    0.8568   -5.4736 C.cat     1 <0>         0.6305
     10 C10         2.6110   -6.4693    1.2956 C.3       1 <0>        -0.0319
     11 C11         5.7543   -2.0741    1.7663 C.3       1 <0>        -0.0918
     12 C12         4.6161    0.1433    2.3333 C.3       1 <0>        -0.0841
     13 C13         5.2430   -1.7129    0.3758 C.3       1 <0>         0.0870
     14 C14         4.3643   -6.0331   -0.4427 C.3       1 <0>         0.2023
     15 C15         3.4337   -0.4666    1.5844 C.3       1 <0>         0.0778
     16 C16         3.7208   -7.1047    0.4435 C.3       1 <0>        -0.0746
     17 C17         5.6648   -0.9011    2.7560 C.3       1 <0>        -0.0681
     18 C18         4.7636   -7.7830    1.3277 C.3       1 <0>        -0.0944
     19 C19         7.0265   -0.2323    2.9523 C.3       1 <0>        -0.0918
     20 C20         5.1203   -2.1076   -3.7746 C.3       1 <0>        -0.1192
     21 C21         4.5564   -1.3488   -2.5679 C.3       1 <0>        -0.0916
     22 C22         6.2766   -1.3646   -4.4322 C.3       1 <0>         0.1883
     23 C23         3.4544   -2.1251   -1.8653 C.3       1 <0>         0.1952
     24 N1          3.3660   -5.4103   -1.2913 N.pl3     1 <0>        -0.7670
     25 N2          3.8547   -1.2301    0.4039 N.am      1 <0>        -0.4509
     26 N3          6.3666    2.1153   -5.9029 N.pl3     1 <0>        -0.8477
     27 N4          8.1063    0.4860   -5.6311 N.pl3     1 <0>        -0.8633
     28 N5          5.8764   -0.0411   -4.8880 N.pl3     1 <0>        -0.7419
     29 N6          2.2741   -2.2179   -2.7432 N.pl3     1 <0>        -0.8860
     30 O1          2.1401   -0.8907    3.6051 O.2       1 <0>        -0.5199
     31 O2          1.7818   -0.9917   -0.6208 O.2       1 <0>        -0.6131
     32 O3          2.6686   -4.5798   -3.6918 O.2       1 <0>        -0.6576
     33 O4          0.3811   -3.5494   -3.8650 O.2       1 <0>        -0.6482
     34 O5          2.5235   -2.5830    2.1269 O.3       1 <0>        -0.6303
     35 S1          1.6226   -3.7401   -3.1398 S.o2      1 <0>         1.5193
     36 H1         -1.4838   -4.3554    0.5354 H         1 <0>         0.1426
     37 H2          0.0637   -5.7192    1.8959 H         1 <0>         0.1398
     38 H3         -0.7593   -3.4996   -1.6852 H         1 <0>         0.1599
     39 H4          3.0465   -5.8195    2.0653 H         1 <0>         0.0574
     40 H5          2.0518   -7.2634    1.8055 H         1 <0>         0.0629
     41 H6          5.1450   -2.9020    2.1525 H         1 <0>         0.0614
     42 H7          6.7810   -2.4531    1.7029 H         1 <0>         0.0593
     43 H8          5.0903    0.8874    1.6785 H         1 <0>         0.0841
     44 H9          4.2733    0.6894    3.2215 H         1 <0>         0.0679
     45 H10         5.8537   -0.9171   -0.0665 H         1 <0>         0.0826
     46 H11         5.3167   -2.5850   -0.2811 H         1 <0>         0.0383
     47 H12         4.8493   -5.2648    0.1722 H         1 <0>         0.0556
     48 H13         5.1400   -6.4799   -1.0745 H         1 <0>         0.0415
     49 H14         2.7622    0.3365    1.2577 H         1 <0>         0.0851
     50 H15         3.2738   -7.8730   -0.2019 H         1 <0>         0.0639
     51 H16         5.3768   -1.3130    3.7317 H         1 <0>         0.0584
     52 H17         5.4090   -8.4341    0.7304 H         1 <0>         0.0401
     53 H18         5.3914   -7.0367    1.8236 H         1 <0>         0.0440
     54 H19         4.2783   -8.3911    2.0970 H         1 <0>         0.0459
     55 H20         7.5288   -0.6354    3.8367 H         1 <0>         0.0456
     56 H21         7.6683   -0.4045    2.0831 H         1 <0>         0.0366
     57 H22         6.9087    0.8473    3.0852 H         1 <0>         0.0474
     58 H23         5.4592   -3.1007   -3.4560 H         1 <0>         0.0800
     59 H24         4.3307   -2.2553   -4.5204 H         1 <0>         0.0681
     60 H25         4.1906   -0.3664   -2.8945 H         1 <0>         0.0740
     61 H26         5.3633   -1.1575   -1.8491 H         1 <0>         0.0631
     62 H27         6.6666   -1.9201   -5.2910 H         1 <0>         0.0970
     63 H28         7.0930   -1.2338   -3.7147 H         1 <0>         0.0725
     64 H29         3.7703   -3.1244   -1.5692 H         1 <0>         0.0839
     65 H30         3.6532   -4.9620   -2.1525 H         1 <0>         0.4531
     66 H31         5.4041    2.4285   -5.8100 H         1 <0>         0.4798
     67 H32         7.0268    2.7620   -6.3283 H         1 <0>         0.4881
     68 H33         8.4388   -0.4263   -5.3285 H         1 <0>         0.4801
     69 H34         8.7827    1.1182   -6.0523 H         1 <0>         0.4806
     70 H35         4.9060    0.2597   -4.7858 H         1 <0>         0.4689
     71 H36         1.6613   -1.3957   -2.7560 H         1 <0>         0.4505
     72 H37         2.0077   -3.1411    2.7472 H         1 <0>         0.4443
@<TRIPOS>BOND
     1    1    2 ar
     2    1    3 ar
     3    2    4 ar
     4    3    6 ar
     5    4    5 ar
     6    4   10 1
     7    5    6 ar
     8    5   24 1
     9    6   35 1
    10    7   15 1
    11    7   30 2
    12    7   34 1
    13    8   23 1
    14    8   25 am
    15    8   31 2
    16    9   26 1
    17    9   27 1
    18    9   28 1
    19   10   16 1
    20   11   13 1
    21   11   17 1
    22   12   15 1
    23   12   17 1
    24   13   25 1
    25   14   16 1
    26   14   24 1
    27   15   25 1
    28   16   18 1
    29   17   19 1
    30   20   21 1
    31   20   22 1
    32   21   23 1
    33   22   28 1
    34   23   29 1
    35   29   35 1
    36   32   35 2
    37   33   35 2
    38    1   36 1
    39    2   37 1
    40    3   38 1
    41   10   39 1
    42   10   40 1
    43   11   41 1
    44   11   42 1
    45   12   43 1
    46   12   44 1
    47   13   45 1
    48   13   46 1
    49   14   47 1
    50   14   48 1
    51   15   49 1
    52   16   50 1
    53   17   51 1
    54   18   52 1
    55   18   53 1
    56   18   54 1
    57   19   55 1
    58   19   56 1
    59   19   57 1
    60   20   58 1
    61   20   59 1
    62   21   60 1
    63   21   61 1
    64   22   62 1
    65   22   63 1
    66   23   64 1
    67   24   65 1
    68   26   66 1
    69   26   67 1
    70   27   68 1
    71   27   69 1
    72   28   70 1
    73   29   71 1
    74   34   72 1
@<TRIPOS>MOLECULE
1dwc_ligand_175
   72    74     0     0     0
SMALL
USER_CHARGES

mmff94s_NoEstat = 79.00
@<TRIPOS>ATOM
      1 C1          3.3851   -6.9535   -3.6263 C.ar      1 <0>        -0.1945
      2 C2          3.3992   -7.7960   -2.5167 C.ar      1 <0>        -0.0294
      3 C3          4.0537   -5.7339   -3.5795 C.ar      1 <0>        -0.0143
      4 C4          4.0807   -7.4207   -1.3499 C.ar      1 <0>        -0.1552
      5 C5          4.7838   -6.2010   -1.3046 C.ar      1 <0>         0.3076
      6 C6          4.7448   -5.3596   -2.4260 C.ar      1 <0>        -0.4908
      7 C7          3.6135    0.1593    2.1008 C.2       1 <0>         0.5994
      8 C8          2.9466   -1.3973   -0.6457 C.2       1 <0>         0.6462
      9 C9         -2.2980   -3.2816   -4.1919 C.cat     1 <0>         0.6305
     10 C10         4.0913   -8.3510   -0.1607 C.3       1 <0>        -0.0319
     11 C11         5.5437    1.3083   -0.3397 C.3       1 <0>        -0.0918
     12 C12         3.3133    2.1108    0.6168 C.3       1 <0>        -0.0841
     13 C13         4.6073    0.4410   -1.1741 C.3       1 <0>         0.0870
     14 C14         5.6716   -6.7314    0.9316 C.3       1 <0>         0.2023
     15 C15         3.0358    0.6175    0.7719 C.3       1 <0>         0.0778
     16 C16         4.4488   -7.6292    1.1488 C.3       1 <0>        -0.0746
     17 C17         4.8054    2.4280    0.4117 C.3       1 <0>        -0.0681
     18 C18         3.2581   -6.8461    1.7135 C.3       1 <0>        -0.0944
     19 C19         4.9662    3.7744   -0.2964 C.3       1 <0>        -0.0918
     20 C20         1.1084   -2.3549   -2.7950 C.3       1 <0>        -0.1192
     21 C21         2.4114   -3.0756   -2.4306 C.3       1 <0>        -0.0916
     22 C22         0.0368   -3.3189   -3.2890 C.3       1 <0>         0.1883
     23 C23         3.4544   -2.1251   -1.8653 C.3       1 <0>         0.1952
     24 N1          5.4614   -5.7995   -0.1601 N.pl3     1 <0>        -0.7670
     25 N2          3.5421   -0.1648   -0.3619 N.am      1 <0>        -0.4509
     26 N3         -3.4568   -2.5916   -4.5325 N.pl3     1 <0>        -0.8477
     27 N4         -2.2453   -4.6572   -4.3892 N.pl3     1 <0>        -0.8633
     28 N5         -1.1871   -2.6212   -3.6562 N.pl3     1 <0>        -0.7419
     29 N6          4.6097   -2.8934   -1.3678 N.pl3     1 <0>        -0.8860
     30 O1          3.3259    0.6306    3.1909 O.2       1 <0>        -0.5199
     31 O2          2.0528   -1.9046    0.0367 O.2       1 <0>        -0.6131
     32 O3          6.8859   -3.9812   -1.8864 O.2       1 <0>        -0.6576
     33 O4          5.4039   -3.2609   -3.7862 O.2       1 <0>        -0.6482
     34 O5          4.5002   -0.8490    1.9151 O.3       1 <0>        -0.6303
     35 S1          5.5613   -3.8008   -2.4493 S.o2      1 <0>         1.5193
     36 H1          2.8501   -7.2466   -4.5256 H         1 <0>         0.1426
     37 H2          2.8716   -8.7458   -2.5612 H         1 <0>         0.1398
     38 H3          4.0446   -5.0667   -4.4357 H         1 <0>         0.1599
     39 H4          3.1161   -8.8419   -0.0549 H         1 <0>         0.0574
     40 H5          4.8358   -9.1334   -0.3561 H         1 <0>         0.0629
     41 H6          6.0425    0.6652    0.3976 H         1 <0>         0.0614
     42 H7          6.3377    1.7214   -0.9727 H         1 <0>         0.0593
     43 H8          2.7432    2.4779   -0.2478 H         1 <0>         0.0841
     44 H9          2.9432    2.6669    1.4876 H         1 <0>         0.0679
     45 H10         4.1201    1.0372   -1.9545 H         1 <0>         0.0826
     46 H11         5.1818   -0.3450   -1.6740 H         1 <0>         0.0383
     47 H12         5.9012   -6.1717    1.8452 H         1 <0>         0.0556
     48 H13         6.5486   -7.3503    0.7056 H         1 <0>         0.0415
     49 H14         1.9534    0.4590    0.8478 H         1 <0>         0.0851
     50 H15         4.7031   -8.3881    1.8990 H         1 <0>         0.0639
     51 H16         5.2803    2.5350    1.3953 H         1 <0>         0.0584
     52 H17         2.4256   -6.8476    1.0036 H         1 <0>         0.0401
     53 H18         2.9129   -7.2938    2.6502 H         1 <0>         0.0440
     54 H19         3.5402   -5.8076    1.9113 H         1 <0>         0.0459
     55 H20         5.9624    4.1882   -0.1137 H         1 <0>         0.0456
     56 H21         4.8337    3.6592   -1.3763 H         1 <0>         0.0366
     57 H22         4.2237    4.4910    0.0673 H         1 <0>         0.0474
     58 H23         0.7341   -1.8112   -1.9193 H         1 <0>         0.0800
     59 H24         1.3022   -1.6154   -3.5806 H         1 <0>         0.0681
     60 H25         2.8001   -3.5947   -3.3165 H         1 <0>         0.0740
     61 H26         2.2014   -3.8505   -1.6824 H         1 <0>         0.0631
     62 H27        -0.2083   -4.0632   -2.5248 H         1 <0>         0.0970
     63 H28         0.3931   -3.8504   -4.1772 H         1 <0>         0.0725
     64 H29         3.7902   -1.3903   -2.5956 H         1 <0>         0.0839
     65 H30         6.0133   -4.9515   -0.2023 H         1 <0>         0.4531
     66 H31        -3.5414   -1.5868   -4.4042 H         1 <0>         0.4798
     67 H32        -4.2604   -3.0798   -4.9210 H         1 <0>         0.4881
     68 H33        -1.4139   -5.1926   -4.1511 H         1 <0>         0.4801
     69 H34        -3.0369   -5.1641   -4.7779 H         1 <0>         0.4806
     70 H35        -1.2558   -1.6112   -3.5231 H         1 <0>         0.4689
     71 H36         5.0337   -2.5501   -0.4993 H         1 <0>         0.4505
     72 H37         4.8863   -1.1580    2.7624 H         1 <0>         0.4443
@<TRIPOS>BOND
     1    1    2 ar
     2    1    3 ar
     3    2    4 ar
     4    3    6 ar
     5    4    5 ar
     6    4   10 1
     7    5    6 ar
     8    5   24 1
     9    6   35 1
    10    7   15 1
    11    7   30 2
    12    7   34 1
    13    8   23 1
    14    8   25 am
    15    8   31 2
    16    9   26 1
    17    9   27 1
    18    9   28 1
    19   10   16 1
    20   11   13 1
    21   11   17 1
    22   12   15 1
    23   12   17 1
    24   13   25 1
    25   14   16 1
    26   14   24 1
    27   15   25 1
    28   16   18 1
    29   17   19 1
    30   20   21 1
    31   20   22 1
    32   21   23 1
    33   22   28 1
    34   23   29 1
    35   29   35 1
    36   32   35 2
    37   33   35 2
    38    1   36 1
    39    2   37 1
    40    3   38 1
    41   10   39 1
    42   10   40 1
    43   11   41 1
    44   11   42 1
    45   12   43 1
    46   12   44 1
    47   13   45 1
    48   13   46 1
    49   14   47 1
    50   14   48 1
    51   15   49 1
    52   16   50 1
    53   17   51 1
    54   18   52 1
    55   18   53 1
    56   18   54 1
    57   19   55 1
    58   19   56 1
    59   19   57 1
    60   20   58 1
    61   20   59 1
    62   21   60 1
    63   21   61 1
    64   22   62 1
    65   22   63 1
    66   23   64 1
    67   24   65 1
    68   26   66 1
    69   26   67 1
    70   27   68 1
    71   27   69 1
    72   28   70 1
    73   29   71 1
    74   34   72 1
@<TRIPOS>MOLECULE
1dwc_ligand_176
   72    74     0     0     0
SMALL
USER_CHARGES

mmff94s_NoEstat = 79.01
@<TRIPOS>ATOM
      1 C1         -0.5523    1.6744    5.9041 C.ar      1 <0>        -0.1945
      2 C2         -0.9694    2.6552    5.0066 C.ar      1 <0>        -0.0294
      3 C3         -0.9569    0.3546    5.7269 C.ar      1 <0>        -0.0143
      4 C4         -1.7923    2.3195    3.9220 C.ar      1 <0>        -0.1552
      5 C5         -2.2299    0.9909    3.7521 C.ar      1 <0>         0.3076
      6 C6         -1.7869    0.0155    4.6571 C.ar      1 <0>        -0.4908
      7 C7          2.9525   -3.7210    4.6633 C.2       1 <0>         0.5994
      8 C8          0.8654   -1.4427    3.2413 C.2       1 <0>         0.6462
      9 C9          2.0746   -5.2044   -1.4852 C.cat     1 <0>         0.6305
     10 C10        -2.2407    3.3967    2.9635 C.3       1 <0>        -0.0319
     11 C11         3.8997   -0.0663    4.7953 C.3       1 <0>        -0.0918
     12 C12         3.0155   -1.8674    6.2922 C.3       1 <0>        -0.0841
     13 C13         3.1900   -0.7124    3.6122 C.3       1 <0>         0.0870
     14 C14        -3.6561    1.6489    1.8554 C.3       1 <0>         0.2023
     15 C15         2.2314   -2.4635    5.1202 C.3       1 <0>         0.0778
     16 C16        -2.6763    2.8021    1.6150 C.3       1 <0>        -0.0746
     17 C17         4.2756   -1.1130    5.8473 C.3       1 <0>        -0.0681
     18 C18        -3.2993    3.8738    0.7246 C.3       1 <0>        -0.0944
     19 C19         4.9663   -0.4582    7.0420 C.3       1 <0>        -0.0918
     20 C20         0.0249   -2.8727    0.7002 C.3       1 <0>        -0.1192
     21 C21         0.3004   -3.5693    2.0376 C.3       1 <0>        -0.0916
     22 C22         0.2602   -3.7963   -0.4886 C.3       1 <0>         0.1883
     23 C23        -0.0078   -2.6730    3.2260 C.3       1 <0>         0.1952
     24 N1         -3.0449    0.6290    2.6865 N.pl3     1 <0>        -0.7670
     25 N2          2.0252   -1.5038    4.0223 N.am      1 <0>        -0.4509
     26 N3          3.3877   -5.6631   -1.4955 N.pl3     1 <0>        -0.8477
     27 N4          1.1890   -5.6621   -2.4548 N.pl3     1 <0>        -0.8633
     28 N5          1.6278   -4.2942   -0.5212 N.pl3     1 <0>        -0.7419
     29 N6         -1.3760   -2.1385    3.1042 N.pl3     1 <0>        -0.8860
     30 O1          3.7741   -3.7699    3.7601 O.2       1 <0>        -0.5199
     31 O2          0.5240   -0.4555    2.5844 O.2       1 <0>        -0.6131
     32 O3         -1.7140   -2.3916    5.6449 O.2       1 <0>        -0.6576
     33 O4         -3.6601   -1.7094    4.2056 O.2       1 <0>        -0.6482
     34 O5          2.5581   -4.7916    5.3952 O.3       1 <0>        -0.6303
     35 S1         -2.2397   -1.6774    4.4970 S.o2      1 <0>         1.5193
     36 H1          0.0908    1.9391    6.7389 H         1 <0>         0.1426
     37 H2         -0.6459    3.6833    5.1512 H         1 <0>         0.1398
     38 H3         -0.6333   -0.4189    6.4161 H         1 <0>         0.1599
     39 H4         -3.0724    3.9441    3.4249 H         1 <0>         0.0574
     40 H5         -1.4243    4.1094    2.7937 H         1 <0>         0.0629
     41 H6          4.7987    0.4538    4.4437 H         1 <0>         0.0614
     42 H7          3.2442    0.6909    5.2441 H         1 <0>         0.0593
     43 H8          2.3586   -1.1679    6.8273 H         1 <0>         0.0841
     44 H9          3.2888   -2.6509    7.0104 H         1 <0>         0.0679
     45 H10         2.8945    0.0639    2.8988 H         1 <0>         0.0826
     46 H11         3.8704   -1.3909    3.0835 H         1 <0>         0.0383
     47 H12        -4.5696    2.0142    2.3409 H         1 <0>         0.0556
     48 H13        -3.9536    1.1996    0.9014 H         1 <0>         0.0415
     49 H14         1.2607   -2.8048    5.4936 H         1 <0>         0.0851
     50 H15        -1.7894    2.4087    1.1001 H         1 <0>         0.0639
     51 H16         4.9839   -1.8245    5.4052 H         1 <0>         0.0584
     52 H17        -3.3831    3.5161   -0.3060 H         1 <0>         0.0401
     53 H18        -4.3001    4.1356    1.0809 H         1 <0>         0.0440
     54 H19        -2.6852    4.7793    0.7260 H         1 <0>         0.0459
     55 H20         4.4464   -0.7091    7.9715 H         1 <0>         0.0456
     56 H21         6.0020   -0.8015    7.1231 H         1 <0>         0.0366
     57 H22         4.9717    0.6305    6.9335 H         1 <0>         0.0474
     58 H23        -1.0105   -2.5120    0.6824 H         1 <0>         0.0800
     59 H24         0.6776   -1.9980    0.5976 H         1 <0>         0.0681
     60 H25         1.3460   -3.9033    2.0652 H         1 <0>         0.0740
     61 H26        -0.3175   -4.4733    2.1109 H         1 <0>         0.0631
     62 H27         0.0590   -3.2831   -1.4342 H         1 <0>         0.0970
     63 H28        -0.4054   -4.6631   -0.4257 H         1 <0>         0.0725
     64 H29         0.1003   -3.1895    4.1787 H         1 <0>         0.0839
     65 H30        -3.3945   -0.3205    2.6487 H         1 <0>         0.4531
     66 H31         4.0702   -5.3548   -0.8082 H         1 <0>         0.4798
     67 H32         3.7046   -6.3246   -2.2006 H         1 <0>         0.4881
     68 H33         0.2221   -5.3473   -2.4765 H         1 <0>         0.4801
     69 H34         1.4849   -6.3248   -3.1675 H         1 <0>         0.4806
     70 H35         2.3012   -3.9765    0.1776 H         1 <0>         0.4689
     71 H36        -1.6042   -1.6955    2.2078 H         1 <0>         0.4505
     72 H37         3.0115   -5.6147    5.1139 H         1 <0>         0.4443
@<TRIPOS>BOND
     1    1    2 ar
     2    1    3 ar
     3    2    4 ar
     4    3    6 ar
     5    4    5 ar
     6    4   10 1
     7    5    6 ar
     8    5   24 1
     9    6   35 1
    10    7   15 1
    11    7   30 2
    12    7   34 1
    13    8   23 1
    14    8   25 am
    15    8   31 2
    16    9   26 1
    17    9   27 1
    18    9   28 1
    19   10   16 1
    20   11   13 1
    21   11   17 1
    22   12   15 1
    23   12   17 1
    24   13   25 1
    25   14   16 1
    26   14   24 1
    27   15   25 1
    28   16   18 1
    29   17   19 1
    30   20   21 1
    31   20   22 1
    32   21   23 1
    33   22   28 1
    34   23   29 1
    35   29   35 1
    36   32   35 2
    37   33   35 2
    38    1   36 1
    39    2   37 1
    40    3   38 1
    41   10   39 1
    42   10   40 1
    43   11   41 1
    44   11   42 1
    45   12   43 1
    46   12   44 1
    47   13   45 1
    48   13   46 1
    49   14   47 1
    50   14   48 1
    51   15   49 1
    52   16   50 1
    53   17   51 1
    54   18   52 1
    55   18   53 1
    56   18   54 1
    57   19   55 1
    58   19   56 1
    59   19   57 1
    60   20   58 1
    61   20   59 1
    62   21   60 1
    63   21   61 1
    64   22   62 1
    65   22   63 1
    66   23   64 1
    67   24   65 1
    68   26   66 1
    69   26   67 1
    70   27   68 1
    71   27   69 1
    72   28   70 1
    73   29   71 1
    74   34   72 1
@<TRIPOS>MOLECULE
1dwc_ligand_177
   72    74     0     0     0
SMALL
USER_CHARGES

mmff94s_NoEstat = 79.03
@<TRIPOS>ATOM
      1 C1          6.6279   -0.0019   -4.6315 C.ar      1 <0>        -0.1945
      2 C2          6.8513   -0.9605   -5.6175 C.ar      1 <0>        -0.0294
      3 C3          6.4135   -0.3984   -3.3149 C.ar      1 <0>        -0.0143
      4 C4          6.8577   -2.3246   -5.2921 C.ar      1 <0>        -0.1552
      5 C5          6.6700   -2.7326   -3.9569 C.ar      1 <0>         0.3076
      6 C6          6.4312   -1.7537   -2.9814 C.ar      1 <0>        -0.4908
      7 C7          2.8752    1.3115    1.1058 C.2       1 <0>         0.5994
      8 C8          2.9466   -1.3973   -0.6457 C.2       1 <0>         0.6462
      9 C9         -0.6351   -4.4757   -4.7469 C.cat     1 <0>         0.6305
     10 C10         7.1097   -3.3479   -6.3733 C.3       1 <0>        -0.0319
     11 C11         2.3641    2.0271   -2.0925 C.3       1 <0>        -0.0918
     12 C12         0.7649    1.6065   -0.1433 C.3       1 <0>        -0.0841
     13 C13         2.2856    0.5067   -2.1800 C.3       1 <0>         0.0870
     14 C14         7.0948   -5.0841   -4.5569 C.3       1 <0>         0.2023
     15 C15         1.8211    0.5897    0.2827 C.3       1 <0>         0.0778
     16 C16         6.6273   -4.7533   -5.9783 C.3       1 <0>        -0.0746
     17 C17         1.2898    2.6259   -1.1701 C.3       1 <0>        -0.0681
     18 C18         5.1089   -4.9000   -6.1290 C.3       1 <0>        -0.0944
     19 C19         0.1276    3.2108   -1.9746 C.3       1 <0>        -0.0918
     20 C20         2.8965   -3.7759   -3.7050 C.3       1 <0>        -0.1192
     21 C21         2.4114   -3.0756   -2.4306 C.3       1 <0>        -0.0916
     22 C22         1.8232   -4.6695   -4.3142 C.3       1 <0>         0.1883
     23 C23         3.4544   -2.1251   -1.8653 C.3       1 <0>         0.1952
     24 N1          6.6637   -4.0768   -3.6061 N.pl3     1 <0>        -0.7670
     25 N2          2.3949   -0.1309   -0.8598 N.am      1 <0>        -0.4509
     26 N3         -1.7474   -3.7257   -5.1146 N.pl3     1 <0>        -0.8477
     27 N4         -0.7997   -5.8178   -4.4220 N.pl3     1 <0>        -0.8633
     28 N5          0.6428   -3.9085   -4.6977 N.pl3     1 <0>        -0.7419
     29 N6          4.6097   -2.8934   -1.3678 N.pl3     1 <0>        -0.8860
     30 O1          3.9082    1.7887    0.6602 O.2       1 <0>        -0.5199
     31 O2          3.0377   -1.9312    0.4627 O.2       1 <0>        -0.6131
     32 O3          7.1295   -3.1665   -0.9098 O.2       1 <0>        -0.6576
     33 O4          6.0510   -0.9214   -0.5623 O.2       1 <0>        -0.6482
     34 O5          2.5161    1.3542    2.4121 O.3       1 <0>        -0.6303
     35 S1          6.1490   -2.1694   -1.2948 S.o2      1 <0>         1.5193
     36 H1          6.6178    1.0534   -4.8905 H         1 <0>         0.1426
     37 H2          7.0150   -0.6418   -6.6442 H         1 <0>         0.1398
     38 H3          6.2324    0.3391   -2.5392 H         1 <0>         0.1599
     39 H4          6.6218   -3.0412   -7.3065 H         1 <0>         0.0574
     40 H5          8.1909   -3.3769   -6.5595 H         1 <0>         0.0629
     41 H6          3.3521    2.2982   -1.6971 H         1 <0>         0.0614
     42 H7          2.3049    2.4652   -3.0956 H         1 <0>         0.0593
     43 H8         -0.0830    1.0592   -0.5778 H         1 <0>         0.0841
     44 H9          0.3696    2.1440    0.7282 H         1 <0>         0.0679
     45 H10         1.3285    0.1928   -2.6129 H         1 <0>         0.0826
     46 H11         3.0787    0.1346   -2.8358 H         1 <0>         0.0383
     47 H12         6.7101   -6.0619   -4.2465 H         1 <0>         0.0556
     48 H13         8.1896   -5.1480   -4.5338 H         1 <0>         0.0415
     49 H14         1.3638   -0.1412    0.9605 H         1 <0>         0.0851
     50 H15         7.0775   -5.4761   -6.6698 H         1 <0>         0.0639
     51 H16         1.7477    3.4645   -0.6301 H         1 <0>         0.0584
     52 H17         4.6507   -3.9342   -6.3622 H         1 <0>         0.0401
     53 H18         4.8683   -5.5991   -6.9355 H         1 <0>         0.0440
     54 H19         4.6654   -5.2768   -5.2025 H         1 <0>         0.0459
     55 H20         0.4103    4.1714   -2.4154 H         1 <0>         0.0456
     56 H21        -0.1604    2.5322   -2.7831 H         1 <0>         0.0366
     57 H22        -0.7432    3.3698   -1.3317 H         1 <0>         0.0474
     58 H23         3.2051   -3.0234   -4.4407 H         1 <0>         0.0800
     59 H24         3.7751   -4.3904   -3.4776 H         1 <0>         0.0681
     60 H25         2.1309   -3.8309   -1.6847 H         1 <0>         0.0740
     61 H26         1.5011   -2.5046   -2.6534 H         1 <0>         0.0631
     62 H27         1.5147   -5.4515   -3.6131 H         1 <0>         0.0970
     63 H28         2.2095   -5.1562   -5.2154 H         1 <0>         0.0725
     64 H29         3.7902   -1.3903   -2.5956 H         1 <0>         0.0839
     65 H30         6.6004   -4.3157   -2.6240 H         1 <0>         0.4531
     66 H31        -1.6753   -2.7415   -5.3584 H         1 <0>         0.4798
     67 H32        -2.6733   -4.1460   -5.1473 H         1 <0>         0.4881
     68 H33        -0.0081   -6.3951   -4.1488 H         1 <0>         0.4801
     69 H34        -1.7164   -6.2578   -4.4500 H         1 <0>         0.4806
     70 H35         0.7319   -2.9210   -4.9418 H         1 <0>         0.4689
     71 H36         4.3912   -3.6637   -0.7270 H         1 <0>         0.4505
     72 H37         3.1856    1.8153    2.9613 H         1 <0>         0.4443
@<TRIPOS>BOND
     1    1    2 ar
     2    1    3 ar
     3    2    4 ar
     4    3    6 ar
     5    4    5 ar
     6    4   10 1
     7    5    6 ar
     8    5   24 1
     9    6   35 1
    10    7   15 1
    11    7   30 2
    12    7   34 1
    13    8   23 1
    14    8   25 am
    15    8   31 2
    16    9   26 1
    17    9   27 1
    18    9   28 1
    19   10   16 1
    20   11   13 1
    21   11   17 1
    22   12   15 1
    23   12   17 1
    24   13   25 1
    25   14   16 1
    26   14   24 1
    27   15   25 1
    28   16   18 1
    29   17   19 1
    30   20   21 1
    31   20   22 1
    32   21   23 1
    33   22   28 1
    34   23   29 1
    35   29   35 1
    36   32   35 2
    37   33   35 2
    38    1   36 1
    39    2   37 1
    40    3   38 1
    41   10   39 1
    42   10   40 1
    43   11   41 1
    44   11   42 1
    45   12   43 1
    46   12   44 1
    47   13   45 1
    48   13   46 1
    49   14   47 1
    50   14   48 1
    51   15   49 1
    52   16   50 1
    53   17   51 1
    54   18   52 1
    55   18   53 1
    56   18   54 1
    57   19   55 1
    58   19   56 1
    59   19   57 1
    60   20   58 1
    61   20   59 1
    62   21   60 1
    63   21   61 1
    64   22   62 1
    65   22   63 1
    66   23   64 1
    67   24   65 1
    68   26   66 1
    69   26   67 1
    70   27   68 1
    71   27   69 1
    72   28   70 1
    73   29   71 1
    74   34   72 1
@<TRIPOS>MOLECULE
1dwc_ligand_178
   72    74     0     0     0
SMALL
USER_CHARGES

mmff94s_NoEstat = 79.04
@<TRIPOS>ATOM
      1 C1         -2.0732   -6.1389    5.6806 C.ar      1 <0>        -0.1945
      2 C2         -2.6808   -6.9079    4.6902 C.ar      1 <0>        -0.0294
      3 C3         -2.0299   -4.7535    5.5544 C.ar      1 <0>        -0.0143
      4 C4         -3.2534   -6.2935    3.5673 C.ar      1 <0>        -0.1552
      5 C5         -3.1881   -4.8939    3.4179 C.ar      1 <0>         0.3076
      6 C6         -2.5860   -4.1361    4.4328 C.ar      1 <0>        -0.4908
      7 C7          3.6572    0.2351    4.2205 C.2       1 <0>         0.5994
      8 C8          0.8654   -1.4427    3.2413 C.2       1 <0>         0.6462
      9 C9          0.2237   -3.7376   -2.9912 C.cat     1 <0>         0.6305
     10 C10        -3.9012   -7.1431    2.5003 C.3       1 <0>        -0.0319
     11 C11         3.8985   -3.4862    3.6166 C.3       1 <0>        -0.0918
     12 C12         4.5525   -1.3270    2.5319 C.3       1 <0>        -0.0841
     13 C13         2.6738   -2.8056    4.2145 C.3       1 <0>         0.0870
     14 C14        -4.2059   -5.0337    1.1799 C.3       1 <0>         0.2023
     15 C15         3.2751   -0.6689    3.0601 C.3       1 <0>         0.0778
     16 C16        -4.8855   -6.3235    1.6511 C.3       1 <0>        -0.0746
     17 C17         5.0385   -2.4845    3.4144 C.3       1 <0>        -0.0681
     18 C18        -5.3916   -7.1408    0.4657 C.3       1 <0>        -0.0944
     19 C19         6.2563   -3.1661    2.7936 C.3       1 <0>        -0.0918
     20 C20         0.0249   -2.8727    0.7002 C.3       1 <0>        -0.1192
     21 C21         0.3004   -3.5693    2.0376 C.3       1 <0>        -0.0916
     22 C22         0.2602   -3.7963   -0.4886 C.3       1 <0>         0.1883
     23 C23        -0.0078   -2.6730    3.2260 C.3       1 <0>         0.1952
     24 N1         -3.7473   -4.2576    2.3165 N.pl3     1 <0>        -0.7670
     25 N2          2.2374   -1.6470    3.4280 N.am      1 <0>        -0.4509
     26 N3         -0.0152   -3.0669   -4.1862 N.pl3     1 <0>        -0.8477
     27 N4          0.6744   -5.0526   -3.0302 N.pl3     1 <0>        -0.8633
     28 N5          0.0202   -3.1173   -1.7538 N.pl3     1 <0>        -0.7419
     29 N6         -1.3760   -2.1385    3.1042 N.pl3     1 <0>        -0.8860
     30 O1          3.6315   -0.0869    5.3991 O.2       1 <0>        -0.5199
     31 O2          0.3435   -0.3338    3.0981 O.2       1 <0>        -0.6131
     32 O3         -3.7998   -1.8872    3.9383 O.2       1 <0>        -0.6576
     33 O4         -1.9207   -1.9310    5.6091 O.2       1 <0>        -0.6482
     34 O5          4.0314    1.4581    3.7715 O.3       1 <0>        -0.6303
     35 S1         -2.5018   -2.3799    4.3583 S.o2      1 <0>         1.5193
     36 H1         -1.6372   -6.6199    6.5517 H         1 <0>         0.1426
     37 H2         -2.7127   -7.9895    4.7986 H         1 <0>         0.1398
     38 H3         -1.5647   -4.1439    6.3224 H         1 <0>         0.1599
     39 H4         -3.1097   -7.5632    1.8667 H         1 <0>         0.0574
     40 H5         -4.4383   -7.9798    2.9637 H         1 <0>         0.0629
     41 H6          4.2244   -4.2993    4.2761 H         1 <0>         0.0614
     42 H7          3.6296   -3.9402    2.6542 H         1 <0>         0.0593
     43 H8          4.3500   -1.7152    1.5243 H         1 <0>         0.0841
     44 H9          5.3525   -0.5834    2.4253 H         1 <0>         0.0679
     45 H10         1.8623   -3.5349    4.3059 H         1 <0>         0.0826
     46 H11         2.8945   -2.4435    5.2260 H         1 <0>         0.0383
     47 H12        -3.3535   -5.2630    0.5284 H         1 <0>         0.0556
     48 H13        -4.9071   -4.4281    0.5950 H         1 <0>         0.0415
     49 H14         2.8873    0.0006    2.2858 H         1 <0>         0.0851
     50 H15        -5.7514   -6.0581    2.2728 H         1 <0>         0.0639
     51 H16         5.3432   -2.0892    4.3913 H         1 <0>         0.0584
     52 H17        -6.2610   -6.6582    0.0093 H         1 <0>         0.0401
     53 H18        -4.6118   -7.2373   -0.2957 H         1 <0>         0.0440
     54 H19        -5.6846   -8.1445    0.7879 H         1 <0>         0.0459
     55 H20         6.5585   -2.6519    1.8763 H         1 <0>         0.0456
     56 H21         7.1004   -3.1536    3.4896 H         1 <0>         0.0366
     57 H22         6.0293   -4.2073    2.5458 H         1 <0>         0.0474
     58 H23        -1.0105   -2.5120    0.6824 H         1 <0>         0.0800
     59 H24         0.6776   -1.9980    0.5976 H         1 <0>         0.0681
     60 H25         1.3460   -3.9033    2.0652 H         1 <0>         0.0740
     61 H26        -0.3175   -4.4733    2.1109 H         1 <0>         0.0631
     62 H27        -0.3909   -4.6751   -0.4416 H         1 <0>         0.0970
     63 H28         1.2981   -4.1440   -0.4920 H         1 <0>         0.0725
     64 H29         0.1003   -3.1895    4.1787 H         1 <0>         0.0839
     65 H30        -3.6095   -3.2595    2.2158 H         1 <0>         0.4531
     66 H31        -0.3470   -2.1063   -4.2064 H         1 <0>         0.4798
     67 H32         0.1347   -3.5257   -5.0818 H         1 <0>         0.4881
     68 H33         0.8589   -5.5723   -2.1756 H         1 <0>         0.4801
     69 H34         0.8324   -5.5290   -3.9149 H         1 <0>         0.4806
     70 H35        -0.3110   -2.1514   -1.7574 H         1 <0>         0.4689
     71 H36        -1.4850   -1.3266    2.4871 H         1 <0>         0.4505
     72 H37         4.2804    2.0579    4.5068 H         1 <0>         0.4443
@<TRIPOS>BOND
     1    1    2 ar
     2    1    3 ar
     3    2    4 ar
     4    3    6 ar
     5    4    5 ar
     6    4   10 1
     7    5    6 ar
     8    5   24 1
     9    6   35 1
    10    7   15 1
    11    7   30 2
    12    7   34 1
    13    8   23 1
    14    8   25 am
    15    8   31 2
    16    9   26 1
    17    9   27 1
    18    9   28 1
    19   10   16 1
    20   11   13 1
    21   11   17 1
    22   12   15 1
    23   12   17 1
    24   13   25 1
    25   14   16 1
    26   14   24 1
    27   15   25 1
    28   16   18 1
    29   17   19 1
    30   20   21 1
    31   20   22 1
    32   21   23 1
    33   22   28 1
    34   23   29 1
    35   29   35 1
    36   32   35 2
    37   33   35 2
    38    1   36 1
    39    2   37 1
    40    3   38 1
    41   10   39 1
    42   10   40 1
    43   11   41 1
    44   11   42 1
    45   12   43 1
    46   12   44 1
    47   13   45 1
    48   13   46 1
    49   14   47 1
    50   14   48 1
    51   15   49 1
    52   16   50 1
    53   17   51 1
    54   18   52 1
    55   18   53 1
    56   18   54 1
    57   19   55 1
    58   19   56 1
    59   19   57 1
    60   20   58 1
    61   20   59 1
    62   21   60 1
    63   21   61 1
    64   22   62 1
    65   22   63 1
    66   23   64 1
    67   24   65 1
    68   26   66 1
    69   26   67 1
    70   27   68 1
    71   27   69 1
    72   28   70 1
    73   29   71 1
    74   34   72 1
@<TRIPOS>MOLECULE
1dwc_ligand_179
   72    74     0     0     0
SMALL
USER_CHARGES

mmff94s_NoEstat = 79.05
@<TRIPOS>ATOM
      1 C1          3.3851   -6.9535   -3.6263 C.ar      1 <0>        -0.1945
      2 C2          3.3992   -7.7960   -2.5167 C.ar      1 <0>        -0.0294
      3 C3          4.0537   -5.7339   -3.5795 C.ar      1 <0>        -0.0143
      4 C4          4.0807   -7.4207   -1.3499 C.ar      1 <0>        -0.1552
      5 C5          4.7838   -6.2010   -1.3046 C.ar      1 <0>         0.3076
      6 C6          4.7448   -5.3596   -2.4260 C.ar      1 <0>        -0.4908
      7 C7          3.6135    0.1593    2.1008 C.2       1 <0>         0.5994
      8 C8          2.9466   -1.3973   -0.6457 C.2       1 <0>         0.6462
      9 C9          1.9954   -1.2097   -6.3044 C.cat     1 <0>         0.6305
     10 C10         4.0913   -8.3510   -0.1607 C.3       1 <0>        -0.0319
     11 C11         5.5437    1.3083   -0.3397 C.3       1 <0>        -0.0918
     12 C12         3.3133    2.1108    0.6168 C.3       1 <0>        -0.0841
     13 C13         4.6073    0.4410   -1.1741 C.3       1 <0>         0.0870
     14 C14         5.6716   -6.7314    0.9316 C.3       1 <0>         0.2023
     15 C15         3.0358    0.6175    0.7719 C.3       1 <0>         0.0778
     16 C16         4.4488   -7.6292    1.1488 C.3       1 <0>        -0.0746
     17 C17         4.8054    2.4280    0.4117 C.3       1 <0>        -0.0681
     18 C18         3.2581   -6.8461    1.7135 C.3       1 <0>        -0.0944
     19 C19         4.9662    3.7744   -0.2964 C.3       1 <0>        -0.0918
     20 C20         1.1084   -2.3549   -2.7950 C.3       1 <0>        -0.1192
     21 C21         2.4114   -3.0756   -2.4306 C.3       1 <0>        -0.0916
     22 C22         1.3107   -1.3243   -3.8990 C.3       1 <0>         0.1883
     23 C23         3.4544   -2.1251   -1.8653 C.3       1 <0>         0.1952
     24 N1          5.4614   -5.7995   -0.1601 N.pl3     1 <0>        -0.7670
     25 N2          3.5421   -0.1648   -0.3619 N.am      1 <0>        -0.4509
     26 N3          2.4542   -1.8217   -7.4663 N.pl3     1 <0>        -0.8477
     27 N4          1.7383    0.1569   -6.3141 N.pl3     1 <0>        -0.8633
     28 N5          1.7878   -1.9397   -5.1291 N.pl3     1 <0>        -0.7419
     29 N6          4.6097   -2.8934   -1.3678 N.pl3     1 <0>        -0.8860
     30 O1          3.3259    0.6306    3.1909 O.2       1 <0>        -0.5199
     31 O2          2.0528   -1.9046    0.0367 O.2       1 <0>        -0.6131
     32 O3          6.8859   -3.9812   -1.8864 O.2       1 <0>        -0.6576
     33 O4          5.4039   -3.2609   -3.7862 O.2       1 <0>        -0.6482
     34 O5          4.5002   -0.8490    1.9151 O.3       1 <0>        -0.6303
     35 S1          5.5613   -3.8008   -2.4493 S.o2      1 <0>         1.5193
     36 H1          2.8501   -7.2466   -4.5256 H         1 <0>         0.1426
     37 H2          2.8716   -8.7458   -2.5612 H         1 <0>         0.1398
     38 H3          4.0446   -5.0667   -4.4357 H         1 <0>         0.1599
     39 H4          3.1161   -8.8419   -0.0549 H         1 <0>         0.0574
     40 H5          4.8358   -9.1334   -0.3561 H         1 <0>         0.0629
     41 H6          6.0425    0.6652    0.3976 H         1 <0>         0.0614
     42 H7          6.3377    1.7214   -0.9727 H         1 <0>         0.0593
     43 H8          2.7432    2.4779   -0.2478 H         1 <0>         0.0841
     44 H9          2.9432    2.6669    1.4876 H         1 <0>         0.0679
     45 H10         4.1201    1.0372   -1.9545 H         1 <0>         0.0826
     46 H11         5.1818   -0.3450   -1.6740 H         1 <0>         0.0383
     47 H12         5.9012   -6.1717    1.8452 H         1 <0>         0.0556
     48 H13         6.5486   -7.3503    0.7056 H         1 <0>         0.0415
     49 H14         1.9534    0.4590    0.8478 H         1 <0>         0.0851
     50 H15         4.7031   -8.3881    1.8990 H         1 <0>         0.0639
     51 H16         5.2803    2.5350    1.3953 H         1 <0>         0.0584
     52 H17         2.4256   -6.8476    1.0036 H         1 <0>         0.0401
     53 H18         2.9129   -7.2938    2.6502 H         1 <0>         0.0440
     54 H19         3.5402   -5.8076    1.9113 H         1 <0>         0.0459
     55 H20         5.9624    4.1882   -0.1137 H         1 <0>         0.0456
     56 H21         4.8337    3.6592   -1.3763 H         1 <0>         0.0366
     57 H22         4.2237    4.4910    0.0673 H         1 <0>         0.0474
     58 H23         0.3611   -3.0906   -3.1155 H         1 <0>         0.0800
     59 H24         0.7078   -1.8457   -1.9110 H         1 <0>         0.0681
     60 H25         2.8001   -3.5947   -3.3165 H         1 <0>         0.0740
     61 H26         2.2014   -3.8505   -1.6824 H         1 <0>         0.0631
     62 H27         2.0309   -0.5573   -3.5971 H         1 <0>         0.0970
     63 H28         0.3618   -0.8275   -4.1248 H         1 <0>         0.0725
     64 H29         3.7902   -1.3903   -2.5956 H         1 <0>         0.0839
     65 H30         6.0133   -4.9515   -0.2023 H         1 <0>         0.4531
     66 H31         2.6572   -2.8169   -7.5055 H         1 <0>         0.4798
     67 H32         2.6031   -1.2832   -8.3166 H         1 <0>         0.4881
     68 H33         1.4022    0.6361   -5.4823 H         1 <0>         0.4801
     69 H34         1.8789    0.7132   -7.1541 H         1 <0>         0.4806
     70 H35         1.9853   -2.9412   -5.1531 H         1 <0>         0.4689
     71 H36         5.0337   -2.5501   -0.4993 H         1 <0>         0.4505
     72 H37         4.8863   -1.1580    2.7624 H         1 <0>         0.4443
@<TRIPOS>BOND
     1    1    2 ar
     2    1    3 ar
     3    2    4 ar
     4    3    6 ar
     5    4    5 ar
     6    4   10 1
     7    5    6 ar
     8    5   24 1
     9    6   35 1
    10    7   15 1
    11    7   30 2
    12    7   34 1
    13    8   23 1
    14    8   25 am
    15    8   31 2
    16    9   26 1
    17    9   27 1
    18    9   28 1
    19   10   16 1
    20   11   13 1
    21   11   17 1
    22   12   15 1
    23   12   17 1
    24   13   25 1
    25   14   16 1
    26   14   24 1
    27   15   25 1
    28   16   18 1
    29   17   19 1
    30   20   21 1
    31   20   22 1
    32   21   23 1
    33   22   28 1
    34   23   29 1
    35   29   35 1
    36   32   35 2
    37   33   35 2
    38    1   36 1
    39    2   37 1
    40    3   38 1
    41   10   39 1
    42   10   40 1
    43   11   41 1
    44   11   42 1
    45   12   43 1
    46   12   44 1
    47   13   45 1
    48   13   46 1
    49   14   47 1
    50   14   48 1
    51   15   49 1
    52   16   50 1
    53   17   51 1
    54   18   52 1
    55   18   53 1
    56   18   54 1
    57   19   55 1
    58   19   56 1
    59   19   57 1
    60   20   58 1
    61   20   59 1
    62   21   60 1
    63   21   61 1
    64   22   62 1
    65   22   63 1
    66   23   64 1
    67   24   65 1
    68   26   66 1
    69   26   67 1
    70   27   68 1
    71   27   69 1
    72   28   70 1
    73   29   71 1
    74   34   72 1
@<TRIPOS>MOLECULE
1dwc_ligand_180
   72    74     0     0     0
SMALL
USER_CHARGES

mmff94s_NoEstat = 79.08
@<TRIPOS>ATOM
      1 C1         -2.2710   -1.6623    7.6435 C.ar      1 <0>        -0.1945
      2 C2         -1.5255   -2.6695    8.2527 C.ar      1 <0>        -0.0294
      3 C3         -2.6085   -1.7664    6.2973 C.ar      1 <0>        -0.0143
      4 C4         -1.1160   -3.7912    7.5176 C.ar      1 <0>        -0.1552
      5 C5         -1.4288   -3.8903    6.1472 C.ar      1 <0>         0.3076
      6 C6         -2.1929   -2.8737    5.5561 C.ar      1 <0>        -0.4908
      7 C7          4.0428   -2.6510    3.1279 C.2       1 <0>         0.5994
      8 C8          0.8654   -1.4427    3.2413 C.2       1 <0>         0.6462
      9 C9          0.2237   -3.7376   -2.9912 C.cat     1 <0>         0.6305
     10 C10        -0.3024   -4.8697    8.1922 C.3       1 <0>        -0.0319
     11 C11         3.0349   -0.4758    6.0475 C.3       1 <0>        -0.0918
     12 C12         3.4817   -2.8819    5.5206 C.3       1 <0>        -0.0841
     13 C13         2.5314   -0.2662    4.6251 C.3       1 <0>         0.0870
     14 C14        -0.0979   -5.9519    5.9398 C.3       1 <0>         0.2023
     15 C15         2.8926   -2.6899    4.1206 C.3       1 <0>         0.0778
     16 C16        -0.3856   -6.1984    7.4244 C.3       1 <0>        -0.0746
     17 C17         4.0802   -1.5931    6.1000 C.3       1 <0>        -0.0681
     18 C18         0.5827   -7.2241    8.0072 C.3       1 <0>        -0.0944
     19 C19         4.5654   -1.8157    7.5311 C.3       1 <0>        -0.0918
     20 C20         0.0249   -2.8727    0.7002 C.3       1 <0>        -0.1192
     21 C21         0.3004   -3.5693    2.0376 C.3       1 <0>        -0.0916
     22 C22         0.2602   -3.7963   -0.4886 C.3       1 <0>         0.1883
     23 C23        -0.0078   -2.6730    3.2260 C.3       1 <0>         0.1952
     24 N1         -1.0371   -4.9903    5.3941 N.pl3     1 <0>        -0.7670
     25 N2          2.0252   -1.5038    4.0223 N.am      1 <0>        -0.4509
     26 N3         -0.0152   -3.0669   -4.1862 N.pl3     1 <0>        -0.8477
     27 N4          0.6744   -5.0526   -3.0302 N.pl3     1 <0>        -0.8633
     28 N5          0.0202   -3.1173   -1.7538 N.pl3     1 <0>        -0.7419
     29 N6         -1.3760   -2.1385    3.1042 N.pl3     1 <0>        -0.8860
     30 O1          4.5855   -1.6340    2.7222 O.2       1 <0>        -0.5199
     31 O2          0.5240   -0.4555    2.5844 O.2       1 <0>        -0.6131
     32 O3         -2.6902   -4.3257    3.4539 O.2       1 <0>        -0.6576
     33 O4         -3.8691   -2.1223    3.7357 O.2       1 <0>        -0.6482
     34 O5          4.3885   -3.9048    2.7464 O.3       1 <0>        -0.6303
     35 S1         -2.6746   -2.9347    3.8647 S.o2      1 <0>         1.5193
     36 H1         -2.5913   -0.7986    8.2197 H         1 <0>         0.1426
     37 H2         -1.2690   -2.5812    9.3057 H         1 <0>         0.1398
     38 H3         -3.1940   -0.9909    5.8138 H         1 <0>         0.1599
     39 H4          0.7390   -4.5290    8.2522 H         1 <0>         0.0574
     40 H5         -0.6633   -5.0246    9.2164 H         1 <0>         0.0629
     41 H6          3.4643    0.4595    6.4257 H         1 <0>         0.0614
     42 H7          2.1893   -0.7290    6.6997 H         1 <0>         0.0593
     43 H8          2.6805   -3.2276    6.1882 H         1 <0>         0.0841
     44 H9          4.2439   -3.6714    5.5123 H         1 <0>         0.0679
     45 H10         1.7550    0.5058    4.6255 H         1 <0>         0.0826
     46 H11         3.3431    0.0962    3.9827 H         1 <0>         0.0383
     47 H12         0.9249   -5.5797    5.8021 H         1 <0>         0.0556
     48 H13        -0.1803   -6.8886    5.3775 H         1 <0>         0.0415
     49 H14         2.3173   -3.5850    3.8636 H         1 <0>         0.0851
     50 H15        -1.4032   -6.5999    7.5237 H         1 <0>         0.0639
     51 H16         4.9487   -1.2974    5.4988 H         1 <0>         0.0584
     52 H17         0.3544   -8.2256    7.6305 H         1 <0>         0.0401
     53 H18         1.6132   -6.9794    7.7327 H         1 <0>         0.0440
     54 H19         0.5120   -7.2425    9.0989 H         1 <0>         0.0459
     55 H20         4.4326   -2.8615    7.8238 H         1 <0>         0.0456
     56 H21         5.6267   -1.5650    7.6207 H         1 <0>         0.0366
     57 H22         4.0032   -1.1886    8.2295 H         1 <0>         0.0474
     58 H23        -1.0105   -2.5120    0.6824 H         1 <0>         0.0800
     59 H24         0.6776   -1.9980    0.5976 H         1 <0>         0.0681
     60 H25         1.3460   -3.9033    2.0652 H         1 <0>         0.0740
     61 H26        -0.3175   -4.4733    2.1109 H         1 <0>         0.0631
     62 H27        -0.3909   -4.6751   -0.4416 H         1 <0>         0.0970
     63 H28         1.2981   -4.1440   -0.4920 H         1 <0>         0.0725
     64 H29         0.1003   -3.1895    4.1787 H         1 <0>         0.0839
     65 H30        -1.2193   -4.9813    4.3981 H         1 <0>         0.4531
     66 H31        -0.3470   -2.1063   -4.2064 H         1 <0>         0.4798
     67 H32         0.1347   -3.5257   -5.0818 H         1 <0>         0.4881
     68 H33         0.8589   -5.5723   -2.1756 H         1 <0>         0.4801
     69 H34         0.8324   -5.5290   -3.9149 H         1 <0>         0.4806
     70 H35        -0.3110   -2.1514   -1.7574 H         1 <0>         0.4689
     71 H36        -1.4476   -1.1318    2.9219 H         1 <0>         0.4505
     72 H37         5.1292   -3.9010    2.1032 H         1 <0>         0.4443
@<TRIPOS>BOND
     1    1    2 ar
     2    1    3 ar
     3    2    4 ar
     4    3    6 ar
     5    4    5 ar
     6    4   10 1
     7    5    6 ar
     8    5   24 1
     9    6   35 1
    10    7   15 1
    11    7   30 2
    12    7   34 1
    13    8   23 1
    14    8   25 am
    15    8   31 2
    16    9   26 1
    17    9   27 1
    18    9   28 1
    19   10   16 1
    20   11   13 1
    21   11   17 1
    22   12   15 1
    23   12   17 1
    24   13   25 1
    25   14   16 1
    26   14   24 1
    27   15   25 1
    28   16   18 1
    29   17   19 1
    30   20   21 1
    31   20   22 1
    32   21   23 1
    33   22   28 1
    34   23   29 1
    35   29   35 1
    36   32   35 2
    37   33   35 2
    38    1   36 1
    39    2   37 1
    40    3   38 1
    41   10   39 1
    42   10   40 1
    43   11   41 1
    44   11   42 1
    45   12   43 1
    46   12   44 1
    47   13   45 1
    48   13   46 1
    49   14   47 1
    50   14   48 1
    51   15   49 1
    52   16   50 1
    53   17   51 1
    54   18   52 1
    55   18   53 1
    56   18   54 1
    57   19   55 1
    58   19   56 1
    59   19   57 1
    60   20   58 1
    61   20   59 1
    62   21   60 1
    63   21   61 1
    64   22   62 1
    65   22   63 1
    66   23   64 1
    67   24   65 1
    68   26   66 1
    69   26   67 1
    70   27   68 1
    71   27   69 1
    72   28   70 1
    73   29   71 1
    74   34   72 1
@<TRIPOS>MOLECULE
1dwc_ligand_181
   72    74     0     0     0
SMALL
USER_CHARGES

mmff94s_NoEstat = 79.09
@<TRIPOS>ATOM
      1 C1         -0.5523    1.6744    5.9041 C.ar      1 <0>        -0.1945
      2 C2         -0.9694    2.6552    5.0066 C.ar      1 <0>        -0.0294
      3 C3         -0.9569    0.3546    5.7269 C.ar      1 <0>        -0.0143
      4 C4         -1.7923    2.3195    3.9220 C.ar      1 <0>        -0.1552
      5 C5         -2.2299    0.9909    3.7521 C.ar      1 <0>         0.3076
      6 C6         -1.7869    0.0155    4.6571 C.ar      1 <0>        -0.4908
      7 C7          2.5084    0.3236    5.6389 C.2       1 <0>         0.5994
      8 C8          0.8654   -1.4427    3.2413 C.2       1 <0>         0.6462
      9 C9          1.4604   -6.7192    4.6765 C.cat     1 <0>         0.6305
     10 C10        -2.2407    3.3967    2.9635 C.3       1 <0>        -0.0319
     11 C11         3.7918   -3.1079    4.7178 C.3       1 <0>        -0.0918
     12 C12         4.3679   -0.6960    4.3756 C.3       1 <0>        -0.0841
     13 C13         2.3136   -2.7413    4.7550 C.3       1 <0>         0.0870
     14 C14        -3.6561    1.6489    1.8554 C.3       1 <0>         0.2023
     15 C15         2.8792   -0.3425    4.3241 C.3       1 <0>         0.0778
     16 C16        -2.6763    2.8021    1.6150 C.3       1 <0>        -0.0746
     17 C17         4.6572   -1.9474    5.2154 C.3       1 <0>        -0.0681
     18 C18        -3.2993    3.8738    0.7246 C.3       1 <0>        -0.0944
     19 C19         6.1396   -2.3107    5.1549 C.3       1 <0>        -0.0918
     20 C20        -0.5404   -4.8511    2.0458 C.3       1 <0>        -0.1192
     21 C21         0.3004   -3.5693    2.0376 C.3       1 <0>        -0.0916
     22 C22        -0.3597   -5.6492    3.3311 C.3       1 <0>         0.1883
     23 C23        -0.0078   -2.6730    3.2260 C.3       1 <0>         0.1952
     24 N1         -3.0449    0.6290    2.6865 N.pl3     1 <0>        -0.7670
     25 N2          2.0252   -1.5038    4.0223 N.am      1 <0>        -0.4509
     26 N3          2.7946   -7.0727    4.8490 N.pl3     1 <0>        -0.8477
     27 N4          0.5364   -7.0602    5.6583 N.pl3     1 <0>        -0.8633
     28 N5          1.0303   -6.0293    3.5380 N.pl3     1 <0>        -0.7419
     29 N6         -1.3760   -2.1385    3.1042 N.pl3     1 <0>        -0.8860
     30 O1          2.0403   -0.2521    6.6099 O.2       1 <0>        -0.5199
     31 O2          0.5240   -0.4555    2.5844 O.2       1 <0>        -0.6131
     32 O3         -1.7140   -2.3916    5.6449 O.2       1 <0>        -0.6576
     33 O4         -3.6601   -1.7094    4.2056 O.2       1 <0>        -0.6482
     34 O5          2.7656    1.6536    5.5910 O.3       1 <0>        -0.6303
     35 S1         -2.2397   -1.6774    4.4970 S.o2      1 <0>         1.5193
     36 H1          0.0908    1.9391    6.7389 H         1 <0>         0.1426
     37 H2         -0.6459    3.6833    5.1512 H         1 <0>         0.1398
     38 H3         -0.6333   -0.4189    6.4161 H         1 <0>         0.1599
     39 H4         -3.0724    3.9441    3.4249 H         1 <0>         0.0574
     40 H5         -1.4243    4.1094    2.7937 H         1 <0>         0.0629
     41 H6          3.9641   -3.9977    5.3349 H         1 <0>         0.0614
     42 H7          4.0768   -3.3683    3.6904 H         1 <0>         0.0593
     43 H8          4.7163   -0.8743    3.3490 H         1 <0>         0.0841
     44 H9          4.9510    0.1500    4.7611 H         1 <0>         0.0679
     45 H10         1.7240   -3.5716    4.3527 H         1 <0>         0.0826
     46 H11         1.9849   -2.5868    5.7898 H         1 <0>         0.0383
     47 H12        -4.5696    2.0142    2.3409 H         1 <0>         0.0556
     48 H13        -3.9536    1.1996    0.9014 H         1 <0>         0.0415
     49 H14         2.7341    0.4259    3.5582 H         1 <0>         0.0851
     50 H15        -1.7894    2.4087    1.1001 H         1 <0>         0.0639
     51 H16         4.4098   -1.7422    6.2643 H         1 <0>         0.0584
     52 H17        -3.3831    3.5161   -0.3060 H         1 <0>         0.0401
     53 H18        -4.3001    4.1356    1.0809 H         1 <0>         0.0440
     54 H19        -2.6852    4.7793    0.7260 H         1 <0>         0.0459
     55 H20         6.6929   -1.5714    4.5681 H         1 <0>         0.0456
     56 H21         6.5688   -2.3436    6.1607 H         1 <0>         0.0366
     57 H22         6.2762   -3.2916    4.6898 H         1 <0>         0.0474
     58 H23        -1.5993   -4.5943    1.9218 H         1 <0>         0.0800
     59 H24        -0.2563   -5.4850    1.1980 H         1 <0>         0.0681
     60 H25         0.1357   -3.0322    1.0943 H         1 <0>         0.0740
     61 H26         1.3654   -3.8328    2.0643 H         1 <0>         0.0631
     62 H27        -0.9667   -6.5601    3.3198 H         1 <0>         0.0970
     63 H28        -0.6690   -5.0471    4.1914 H         1 <0>         0.0725
     64 H29         0.1003   -3.1895    4.1787 H         1 <0>         0.0839
     65 H30        -3.3945   -0.3205    2.6487 H         1 <0>         0.4531
     66 H31         3.5044   -6.8463    4.1574 H         1 <0>         0.4798
     67 H32         3.0989   -7.5750    5.6798 H         1 <0>         0.4881
     68 H33        -0.4468   -6.8174    5.5641 H         1 <0>         0.4801
     69 H34         0.8200   -7.5607    6.4972 H         1 <0>         0.4806
     70 H35         1.7319   -5.7928    2.8348 H         1 <0>         0.4689
     71 H36        -1.6042   -1.6955    2.2078 H         1 <0>         0.4505
     72 H37         2.5309    2.1027    6.4310 H         1 <0>         0.4443
@<TRIPOS>BOND
     1    1    2 ar
     2    1    3 ar
     3    2    4 ar
     4    3    6 ar
     5    4    5 ar
     6    4   10 1
     7    5    6 ar
     8    5   24 1
     9    6   35 1
    10    7   15 1
    11    7   30 2
    12    7   34 1
    13    8   23 1
    14    8   25 am
    15    8   31 2
    16    9   26 1
    17    9   27 1
    18    9   28 1
    19   10   16 1
    20   11   13 1
    21   11   17 1
    22   12   15 1
    23   12   17 1
    24   13   25 1
    25   14   16 1
    26   14   24 1
    27   15   25 1
    28   16   18 1
    29   17   19 1
    30   20   21 1
    31   20   22 1
    32   21   23 1
    33   22   28 1
    34   23   29 1
    35   29   35 1
    36   32   35 2
    37   33   35 2
    38    1   36 1
    39    2   37 1
    40    3   38 1
    41   10   39 1
    42   10   40 1
    43   11   41 1
    44   11   42 1
    45   12   43 1
    46   12   44 1
    47   13   45 1
    48   13   46 1
    49   14   47 1
    50   14   48 1
    51   15   49 1
    52   16   50 1
    53   17   51 1
    54   18   52 1
    55   18   53 1
    56   18   54 1
    57   19   55 1
    58   19   56 1
    59   19   57 1
    60   20   58 1
    61   20   59 1
    62   21   60 1
    63   21   61 1
    64   22   62 1
    65   22   63 1
    66   23   64 1
    67   24   65 1
    68   26   66 1
    69   26   67 1
    70   27   68 1
    71   27   69 1
    72   28   70 1
    73   29   71 1
    74   34   72 1
@<TRIPOS>MOLECULE
1dwc_ligand_182
   72    74     0     0     0
SMALL
USER_CHARGES

mmff94s_NoEstat = 79.10
@<TRIPOS>ATOM
      1 C1         -3.5298   -6.2535    4.3510 C.ar      1 <0>        -0.1945
      2 C2         -4.3901   -6.3642    3.2606 C.ar      1 <0>        -0.0294
      3 C3         -2.9628   -5.0220    4.6653 C.ar      1 <0>        -0.0143
      4 C4         -4.6918   -5.2398    2.4790 C.ar      1 <0>        -0.1552
      5 C5         -4.0992   -3.9956    2.7730 C.ar      1 <0>         0.3076
      6 C6         -3.2482   -3.9013    3.8837 C.ar      1 <0>        -0.4908
      7 C7          2.9525   -3.7210    4.6633 C.2       1 <0>         0.5994
      8 C8          0.8654   -1.4427    3.2413 C.2       1 <0>         0.6462
      9 C9          2.0746   -5.2044   -1.4852 C.cat     1 <0>         0.6305
     10 C10        -5.6204   -5.3796    1.2965 C.3       1 <0>        -0.0319
     11 C11         3.8997   -0.0663    4.7953 C.3       1 <0>        -0.0918
     12 C12         3.0155   -1.8674    6.2922 C.3       1 <0>        -0.0841
     13 C13         3.1900   -0.7124    3.6122 C.3       1 <0>         0.0870
     14 C14        -5.1062   -2.9837    0.7664 C.3       1 <0>         0.2023
     15 C15         2.2314   -2.4635    5.1202 C.3       1 <0>         0.0778
     16 C16        -6.2232   -4.0248    0.8929 C.3       1 <0>        -0.0746
     17 C17         4.2756   -1.1130    5.8473 C.3       1 <0>        -0.0681
     18 C18        -7.0091   -4.1462   -0.4097 C.3       1 <0>        -0.0944
     19 C19         4.9663   -0.4582    7.0420 C.3       1 <0>        -0.0918
     20 C20         0.0249   -2.8727    0.7002 C.3       1 <0>        -0.1192
     21 C21         0.3004   -3.5693    2.0376 C.3       1 <0>        -0.0916
     22 C22         0.2602   -3.7963   -0.4886 C.3       1 <0>         0.1883
     23 C23        -0.0078   -2.6730    3.2260 C.3       1 <0>         0.1952
     24 N1         -4.3801   -2.8644    2.0167 N.pl3     1 <0>        -0.7670
     25 N2          2.0252   -1.5038    4.0223 N.am      1 <0>        -0.4509
     26 N3          3.3877   -5.6631   -1.4955 N.pl3     1 <0>        -0.8477
     27 N4          1.1890   -5.6621   -2.4548 N.pl3     1 <0>        -0.8633
     28 N5          1.6278   -4.2942   -0.5212 N.pl3     1 <0>        -0.7419
     29 N6         -1.3760   -2.1385    3.1042 N.pl3     1 <0>        -0.8860
     30 O1          3.3424   -3.9319    3.5245 O.2       1 <0>        -0.5199
     31 O2          0.5240   -0.4555    2.5844 O.2       1 <0>        -0.6131
     32 O3         -3.5166   -1.3454    4.2968 O.2       1 <0>        -0.6576
     33 O4         -1.7865   -2.6277    5.5955 O.2       1 <0>        -0.6482
     34 O5          3.1050   -4.5869    5.6949 O.3       1 <0>        -0.6303
     35 S1         -2.5018   -2.3799    4.3583 S.o2      1 <0>         1.5193
     36 H1         -3.3049   -7.1268    4.9571 H         1 <0>         0.1426
     37 H2         -4.8309   -7.3297    3.0242 H         1 <0>         0.1398
     38 H3         -2.2961   -4.9225    5.5159 H         1 <0>         0.1599
     39 H4         -5.0522   -5.8078    0.4610 H         1 <0>         0.0574
     40 H5         -6.4331   -6.0751    1.5397 H         1 <0>         0.0629
     41 H6          4.7987    0.4538    4.4437 H         1 <0>         0.0614
     42 H7          3.2442    0.6909    5.2441 H         1 <0>         0.0593
     43 H8          2.3586   -1.1679    6.8273 H         1 <0>         0.0841
     44 H9          3.2888   -2.6509    7.0104 H         1 <0>         0.0679
     45 H10         2.8945    0.0639    2.8988 H         1 <0>         0.0826
     46 H11         3.8704   -1.3909    3.0835 H         1 <0>         0.0383
     47 H12        -4.4091   -3.2616   -0.0338 H         1 <0>         0.0556
     48 H13        -5.5272   -2.0065    0.5046 H         1 <0>         0.0415
     49 H14         1.2607   -2.8048    5.4936 H         1 <0>         0.0851
     50 H15        -6.9191   -3.7005    1.6784 H         1 <0>         0.0639
     51 H16         4.9839   -1.8245    5.4052 H         1 <0>         0.0584
     52 H17        -7.6317   -3.2604   -0.5670 H         1 <0>         0.0401
     53 H18        -6.3292   -4.2450   -1.2612 H         1 <0>         0.0440
     54 H19        -7.6604   -5.0250   -0.3851 H         1 <0>         0.0459
     55 H20         4.4464   -0.7091    7.9715 H         1 <0>         0.0456
     56 H21         6.0020   -0.8015    7.1231 H         1 <0>         0.0366
     57 H22         4.9717    0.6305    6.9335 H         1 <0>         0.0474
     58 H23        -1.0105   -2.5120    0.6824 H         1 <0>         0.0800
     59 H24         0.6776   -1.9980    0.5976 H         1 <0>         0.0681
     60 H25         1.3460   -3.9033    2.0652 H         1 <0>         0.0740
     61 H26        -0.3175   -4.4733    2.1109 H         1 <0>         0.0631
     62 H27         0.0590   -3.2831   -1.4342 H         1 <0>         0.0970
     63 H28        -0.4054   -4.6631   -0.4257 H         1 <0>         0.0725
     64 H29         0.1003   -3.1895    4.1787 H         1 <0>         0.0839
     65 H30        -3.8731   -2.0116    2.2195 H         1 <0>         0.4531
     66 H31         4.0702   -5.3548   -0.8082 H         1 <0>         0.4798
     67 H32         3.7046   -6.3246   -2.2006 H         1 <0>         0.4881
     68 H33         0.2221   -5.3473   -2.4765 H         1 <0>         0.4801
     69 H34         1.4849   -6.3248   -3.1675 H         1 <0>         0.4806
     70 H35         2.3012   -3.9765    0.1776 H         1 <0>         0.4689
     71 H36        -1.4850   -1.3266    2.4871 H         1 <0>         0.4505
     72 H37         3.5674   -5.4070    5.4195 H         1 <0>         0.4443
@<TRIPOS>BOND
     1    1    2 ar
     2    1    3 ar
     3    2    4 ar
     4    3    6 ar
     5    4    5 ar
     6    4   10 1
     7    5    6 ar
     8    5   24 1
     9    6   35 1
    10    7   15 1
    11    7   30 2
    12    7   34 1
    13    8   23 1
    14    8   25 am
    15    8   31 2
    16    9   26 1
    17    9   27 1
    18    9   28 1
    19   10   16 1
    20   11   13 1
    21   11   17 1
    22   12   15 1
    23   12   17 1
    24   13   25 1
    25   14   16 1
    26   14   24 1
    27   15   25 1
    28   16   18 1
    29   17   19 1
    30   20   21 1
    31   20   22 1
    32   21   23 1
    33   22   28 1
    34   23   29 1
    35   29   35 1
    36   32   35 2
    37   33   35 2
    38    1   36 1
    39    2   37 1
    40    3   38 1
    41   10   39 1
    42   10   40 1
    43   11   41 1
    44   11   42 1
    45   12   43 1
    46   12   44 1
    47   13   45 1
    48   13   46 1
    49   14   47 1
    50   14   48 1
    51   15   49 1
    52   16   50 1
    53   17   51 1
    54   18   52 1
    55   18   53 1
    56   18   54 1
    57   19   55 1
    58   19   56 1
    59   19   57 1
    60   20   58 1
    61   20   59 1
    62   21   60 1
    63   21   61 1
    64   22   62 1
    65   22   63 1
    66   23   64 1
    67   24   65 1
    68   26   66 1
    69   26   67 1
    70   27   68 1
    71   27   69 1
    72   28   70 1
    73   29   71 1
    74   34   72 1
@<TRIPOS>MOLECULE
1dwc_ligand_183
   72    74     0     0     0
SMALL
USER_CHARGES

mmff94s_NoEstat = 79.11
@<TRIPOS>ATOM
      1 C1         -3.5298   -6.2535    4.3510 C.ar      1 <0>        -0.1945
      2 C2         -4.3901   -6.3642    3.2606 C.ar      1 <0>        -0.0294
      3 C3         -2.9628   -5.0220    4.6653 C.ar      1 <0>        -0.0143
      4 C4         -4.6918   -5.2398    2.4790 C.ar      1 <0>        -0.1552
      5 C5         -4.0992   -3.9956    2.7730 C.ar      1 <0>         0.3076
      6 C6         -3.2482   -3.9013    3.8837 C.ar      1 <0>        -0.4908
      7 C7          3.6572    0.2351    4.2205 C.2       1 <0>         0.5994
      8 C8          0.8654   -1.4427    3.2413 C.2       1 <0>         0.6462
      9 C9         -0.6326   -5.9229   -1.4626 C.cat     1 <0>         0.6305
     10 C10        -5.6204   -5.3796    1.2965 C.3       1 <0>        -0.0319
     11 C11         3.8985   -3.4862    3.6166 C.3       1 <0>        -0.0918
     12 C12         4.5525   -1.3270    2.5319 C.3       1 <0>        -0.0841
     13 C13         2.6738   -2.8056    4.2145 C.3       1 <0>         0.0870
     14 C14        -5.1062   -2.9837    0.7664 C.3       1 <0>         0.2023
     15 C15         3.2751   -0.6689    3.0601 C.3       1 <0>         0.0778
     16 C16        -6.2232   -4.0248    0.8929 C.3       1 <0>        -0.0746
     17 C17         5.0385   -2.4845    3.4144 C.3       1 <0>        -0.0681
     18 C18        -7.0091   -4.1462   -0.4097 C.3       1 <0>        -0.0944
     19 C19         6.2563   -3.1661    2.7936 C.3       1 <0>        -0.0918
     20 C20         0.0249   -2.8727    0.7002 C.3       1 <0>        -0.1192
     21 C21         0.3004   -3.5693    2.0376 C.3       1 <0>        -0.0916
     22 C22         0.2602   -3.7963   -0.4886 C.3       1 <0>         0.1883
     23 C23        -0.0078   -2.6730    3.2260 C.3       1 <0>         0.1952
     24 N1         -4.3801   -2.8644    2.0167 N.pl3     1 <0>        -0.7670
     25 N2          2.2374   -1.6470    3.4280 N.am      1 <0>        -0.4509
     26 N3         -1.4804   -7.0239   -1.4014 N.pl3     1 <0>        -0.8477
     27 N4          0.2178   -5.7819   -2.5539 N.pl3     1 <0>        -0.8633
     28 N5         -0.6182   -4.9567   -0.4508 N.pl3     1 <0>        -0.7419
     29 N6         -1.3760   -2.1385    3.1042 N.pl3     1 <0>        -0.8860
     30 O1          4.7548    0.7487    4.3782 O.2       1 <0>        -0.5199
     31 O2          0.3435   -0.3338    3.0981 O.2       1 <0>        -0.6131
     32 O3         -3.5166   -1.3454    4.2968 O.2       1 <0>        -0.6576
     33 O4         -1.7865   -2.6277    5.5955 O.2       1 <0>        -0.6482
     34 O5          2.6107    0.3959    5.0669 O.3       1 <0>        -0.6303
     35 S1         -2.5018   -2.3799    4.3583 S.o2      1 <0>         1.5193
     36 H1         -3.3049   -7.1268    4.9571 H         1 <0>         0.1426
     37 H2         -4.8309   -7.3297    3.0242 H         1 <0>         0.1398
     38 H3         -2.2961   -4.9225    5.5159 H         1 <0>         0.1599
     39 H4         -5.0522   -5.8078    0.4610 H         1 <0>         0.0574
     40 H5         -6.4331   -6.0751    1.5397 H         1 <0>         0.0629
     41 H6          4.2244   -4.2993    4.2761 H         1 <0>         0.0614
     42 H7          3.6296   -3.9402    2.6542 H         1 <0>         0.0593
     43 H8          4.3500   -1.7152    1.5243 H         1 <0>         0.0841
     44 H9          5.3525   -0.5834    2.4253 H         1 <0>         0.0679
     45 H10         1.8623   -3.5349    4.3059 H         1 <0>         0.0826
     46 H11         2.8945   -2.4435    5.2260 H         1 <0>         0.0383
     47 H12        -4.4091   -3.2616   -0.0338 H         1 <0>         0.0556
     48 H13        -5.5272   -2.0065    0.5046 H         1 <0>         0.0415
     49 H14         2.8873    0.0006    2.2858 H         1 <0>         0.0851
     50 H15        -6.9191   -3.7005    1.6784 H         1 <0>         0.0639
     51 H16         5.3432   -2.0892    4.3913 H         1 <0>         0.0584
     52 H17        -7.6317   -3.2604   -0.5670 H         1 <0>         0.0401
     53 H18        -6.3292   -4.2450   -1.2612 H         1 <0>         0.0440
     54 H19        -7.6604   -5.0250   -0.3851 H         1 <0>         0.0459
     55 H20         6.5585   -2.6519    1.8763 H         1 <0>         0.0456
     56 H21         7.1004   -3.1536    3.4896 H         1 <0>         0.0366
     57 H22         6.0293   -4.2073    2.5458 H         1 <0>         0.0474
     58 H23        -1.0105   -2.5120    0.6824 H         1 <0>         0.0800
     59 H24         0.6776   -1.9980    0.5976 H         1 <0>         0.0681
     60 H25         1.3460   -3.9033    2.0652 H         1 <0>         0.0740
     61 H26        -0.3175   -4.4733    2.1109 H         1 <0>         0.0631
     62 H27         1.2957   -4.1503   -0.5157 H         1 <0>         0.0970
     63 H28         0.0608   -3.2615   -1.4226 H         1 <0>         0.0725
     64 H29         0.1003   -3.1895    4.1787 H         1 <0>         0.0839
     65 H30        -3.8731   -2.0116    2.2195 H         1 <0>         0.4531
     66 H31        -2.1173   -7.1693   -0.6226 H         1 <0>         0.4798
     67 H32        -1.4841   -7.7223   -2.1412 H         1 <0>         0.4881
     68 H33         0.8505   -4.9892   -2.6303 H         1 <0>         0.4801
     69 H34         0.2286   -6.4677   -3.3050 H         1 <0>         0.4806
     70 H35        -1.2539   -5.0876    0.3375 H         1 <0>         0.4689
     71 H36        -1.4850   -1.3266    2.4871 H         1 <0>         0.4505
     72 H37         2.8382    0.9757    5.8248 H         1 <0>         0.4443
@<TRIPOS>BOND
     1    1    2 ar
     2    1    3 ar
     3    2    4 ar
     4    3    6 ar
     5    4    5 ar
     6    4   10 1
     7    5    6 ar
     8    5   24 1
     9    6   35 1
    10    7   15 1
    11    7   30 2
    12    7   34 1
    13    8   23 1
    14    8   25 am
    15    8   31 2
    16    9   26 1
    17    9   27 1
    18    9   28 1
    19   10   16 1
    20   11   13 1
    21   11   17 1
    22   12   15 1
    23   12   17 1
    24   13   25 1
    25   14   16 1
    26   14   24 1
    27   15   25 1
    28   16   18 1
    29   17   19 1
    30   20   21 1
    31   20   22 1
    32   21   23 1
    33   22   28 1
    34   23   29 1
    35   29   35 1
    36   32   35 2
    37   33   35 2
    38    1   36 1
    39    2   37 1
    40    3   38 1
    41   10   39 1
    42   10   40 1
    43   11   41 1
    44   11   42 1
    45   12   43 1
    46   12   44 1
    47   13   45 1
    48   13   46 1
    49   14   47 1
    50   14   48 1
    51   15   49 1
    52   16   50 1
    53   17   51 1
    54   18   52 1
    55   18   53 1
    56   18   54 1
    57   19   55 1
    58   19   56 1
    59   19   57 1
    60   20   58 1
    61   20   59 1
    62   21   60 1
    63   21   61 1
    64   22   62 1
    65   22   63 1
    66   23   64 1
    67   24   65 1
    68   26   66 1
    69   26   67 1
    70   27   68 1
    71   27   69 1
    72   28   70 1
    73   29   71 1
    74   34   72 1
@<TRIPOS>MOLECULE
1dwc_ligand_184
   72    74     0     0     0
SMALL
USER_CHARGES

mmff94s_NoEstat = 79.12
@<TRIPOS>ATOM
      1 C1          4.1820   -5.5545   -5.6336 C.ar      1 <0>        -0.1945
      2 C2          3.9749   -4.9047   -6.8487 C.ar      1 <0>        -0.0294
      3 C3          3.4498   -5.1777   -4.5117 C.ar      1 <0>        -0.0143
      4 C4          3.0290   -3.8745   -6.9491 C.ar      1 <0>        -0.1552
      5 C5          2.3044   -3.4675   -5.8112 C.ar      1 <0>         0.3076
      6 C6          2.5161   -4.1440   -4.6011 C.ar      1 <0>        -0.4908
      7 C7          1.8102   -1.5505    2.3702 C.2       1 <0>         0.5994
      8 C8          2.9466   -1.3973   -0.6457 C.2       1 <0>         0.6462
      9 C9          6.7753    0.8568   -5.4736 C.cat     1 <0>         0.6305
     10 C10         2.8229   -3.1764   -8.2721 C.3       1 <0>        -0.0319
     11 C11         4.4920   -3.4807    2.0801 C.3       1 <0>        -0.0918
     12 C12         4.1798   -1.0721    2.8769 C.3       1 <0>        -0.0841
     13 C13         4.5658   -2.7774    0.7291 C.3       1 <0>         0.0870
     14 C14         1.2630   -1.6248   -7.0698 C.3       1 <0>         0.2023
     15 C15         3.1125   -1.0286    1.7861 C.3       1 <0>         0.0778
     16 C16         1.4568   -2.4750   -8.3297 C.3       1 <0>        -0.0746
     17 C17         4.5869   -2.5050    3.2643 C.3       1 <0>        -0.0681
     18 C18         1.3365   -1.6224   -9.5899 C.3       1 <0>        -0.0944
     19 C19         5.9882   -2.5079    3.8779 C.3       1 <0>        -0.0918
     20 C20         5.1203   -2.1076   -3.7746 C.3       1 <0>        -0.1192
     21 C21         4.5564   -1.3488   -2.5679 C.3       1 <0>        -0.0916
     22 C22         6.2766   -1.3646   -4.4322 C.3       1 <0>         0.1883
     23 C23         3.4544   -2.1251   -1.8653 C.3       1 <0>         0.1952
     24 N1          1.3604   -2.4504   -5.8809 N.pl3     1 <0>        -0.7670
     25 N2          3.5192   -1.7560    0.5781 N.am      1 <0>        -0.4509
     26 N3          6.3666    2.1153   -5.9029 N.pl3     1 <0>        -0.8477
     27 N4          8.1063    0.4860   -5.6311 N.pl3     1 <0>        -0.8633
     28 N5          5.8764   -0.0411   -4.8880 N.pl3     1 <0>        -0.7419
     29 N6          2.2741   -2.2179   -2.7432 N.pl3     1 <0>        -0.8860
     30 O1          1.1684   -2.4905    1.9254 O.2       1 <0>        -0.5199
     31 O2          2.0685   -0.5400   -0.7710 O.2       1 <0>        -0.6131
     32 O3          0.2257   -3.5846   -3.4982 O.2       1 <0>        -0.6576
     33 O4          2.0133   -4.7010   -2.1261 O.2       1 <0>        -0.6482
     34 O5          1.4498   -0.8272    3.4584 O.3       1 <0>        -0.6303
     35 S1          1.6226   -3.7401   -3.1398 S.o2      1 <0>         1.5193
     36 H1          4.9114   -6.3567   -5.5633 H         1 <0>         0.1426
     37 H2          4.5493   -5.2078   -7.7208 H         1 <0>         0.1398
     38 H3          3.5983   -5.6808   -3.5615 H         1 <0>         0.1599
     39 H4          3.6316   -2.4467   -8.4063 H         1 <0>         0.0574
     40 H5          2.8878   -3.9023   -9.0919 H         1 <0>         0.0629
     41 H6          3.5311   -4.0088    2.1410 H         1 <0>         0.0614
     42 H7          5.2694   -4.2509    2.1463 H         1 <0>         0.0593
     43 H8          5.0641   -0.5305    2.5137 H         1 <0>         0.0841
     44 H9          3.8399   -0.5392    3.7741 H         1 <0>         0.0679
     45 H10         5.5312   -2.2723    0.6079 H         1 <0>         0.0826
     46 H11         4.4795   -3.5150   -0.0747 H         1 <0>         0.0383
     47 H12         2.0165   -0.8288   -7.0225 H         1 <0>         0.0556
     48 H13         0.2804   -1.1403   -7.0873 H         1 <0>         0.0415
     49 H14         2.9188    0.0160    1.5141 H         1 <0>         0.0851
     50 H15         0.6689   -3.2396   -8.3627 H         1 <0>         0.0639
     51 H16         3.9047   -2.8651    4.0450 H         1 <0>         0.0584
     52 H17         0.2966   -1.3248   -9.7548 H         1 <0>         0.0401
     53 H18         1.9441   -0.7168   -9.5009 H         1 <0>         0.0440
     54 H19         1.6777   -2.1815  -10.4662 H         1 <0>         0.0459
     55 H20         6.0310   -3.1862    4.7353 H         1 <0>         0.0456
     56 H21         6.7293   -2.8350    3.1425 H         1 <0>         0.0366
     57 H22         6.2606   -1.5045    4.2187 H         1 <0>         0.0474
     58 H23         5.4592   -3.1007   -3.4560 H         1 <0>         0.0800
     59 H24         4.3307   -2.2553   -4.5204 H         1 <0>         0.0681
     60 H25         4.1906   -0.3664   -2.8945 H         1 <0>         0.0740
     61 H26         5.3633   -1.1575   -1.8491 H         1 <0>         0.0631
     62 H27         6.6666   -1.9201   -5.2910 H         1 <0>         0.0970
     63 H28         7.0930   -1.2338   -3.7147 H         1 <0>         0.0725
     64 H29         3.7703   -3.1244   -1.5692 H         1 <0>         0.0839
     65 H30         0.9202   -2.1424   -5.0226 H         1 <0>         0.4531
     66 H31         5.4041    2.4285   -5.8100 H         1 <0>         0.4798
     67 H32         7.0268    2.7620   -6.3283 H         1 <0>         0.4881
     68 H33         8.4388   -0.4263   -5.3285 H         1 <0>         0.4801
     69 H34         8.7827    1.1182   -6.0523 H         1 <0>         0.4806
     70 H35         4.9060    0.2597   -4.7858 H         1 <0>         0.4689
     71 H36         1.6613   -1.3957   -2.7560 H         1 <0>         0.4505
     72 H37         0.6092   -1.1478    3.8495 H         1 <0>         0.4443
@<TRIPOS>BOND
     1    1    2 ar
     2    1    3 ar
     3    2    4 ar
     4    3    6 ar
     5    4    5 ar
     6    4   10 1
     7    5    6 ar
     8    5   24 1
     9    6   35 1
    10    7   15 1
    11    7   30 2
    12    7   34 1
    13    8   23 1
    14    8   25 am
    15    8   31 2
    16    9   26 1
    17    9   27 1
    18    9   28 1
    19   10   16 1
    20   11   13 1
    21   11   17 1
    22   12   15 1
    23   12   17 1
    24   13   25 1
    25   14   16 1
    26   14   24 1
    27   15   25 1
    28   16   18 1
    29   17   19 1
    30   20   21 1
    31   20   22 1
    32   21   23 1
    33   22   28 1
    34   23   29 1
    35   29   35 1
    36   32   35 2
    37   33   35 2
    38    1   36 1
    39    2   37 1
    40    3   38 1
    41   10   39 1
    42   10   40 1
    43   11   41 1
    44   11   42 1
    45   12   43 1
    46   12   44 1
    47   13   45 1
    48   13   46 1
    49   14   47 1
    50   14   48 1
    51   15   49 1
    52   16   50 1
    53   17   51 1
    54   18   52 1
    55   18   53 1
    56   18   54 1
    57   19   55 1
    58   19   56 1
    59   19   57 1
    60   20   58 1
    61   20   59 1
    62   21   60 1
    63   21   61 1
    64   22   62 1
    65   22   63 1
    66   23   64 1
    67   24   65 1
    68   26   66 1
    69   26   67 1
    70   27   68 1
    71   27   69 1
    72   28   70 1
    73   29   71 1
    74   34   72 1
@<TRIPOS>MOLECULE
1dwc_ligand_185
   72    74     0     0     0
SMALL
USER_CHARGES

mmff94s_NoEstat = 79.14
@<TRIPOS>ATOM
      1 C1          1.9247   -5.6076   -5.8968 C.ar      1 <0>        -0.1945
      2 C2          2.8785   -6.5393   -5.4922 C.ar      1 <0>        -0.0294
      3 C3          1.4180   -4.6909   -4.9805 C.ar      1 <0>        -0.0143
      4 C4          3.3347   -6.5563   -4.1664 C.ar      1 <0>        -0.1552
      5 C5          2.8054   -5.6505   -3.2257 C.ar      1 <0>         0.3076
      6 C6          1.8576   -4.7107   -3.6559 C.ar      1 <0>        -0.4908
      7 C7          2.4038   -0.4910    2.4030 C.2       1 <0>         0.5994
      8 C8          2.9466   -1.3973   -0.6457 C.2       1 <0>         0.6462
      9 C9          6.7753    0.8568   -5.4736 C.cat     1 <0>         0.6305
     10 C10         4.3633   -7.5778   -3.7437 C.3       1 <0>        -0.0319
     11 C11         3.9178   -3.4419    2.3602 C.3       1 <0>        -0.0918
     12 C12         4.8012   -1.0545    2.5913 C.3       1 <0>        -0.0841
     13 C13         4.0430   -3.0960    0.8803 C.3       1 <0>         0.0870
     14 C14         4.0746   -6.7191   -1.4059 C.3       1 <0>         0.2023
     15 C15         3.6790   -0.7248    1.6100 C.3       1 <0>         0.0778
     16 C16         5.0972   -7.1398   -2.4665 C.3       1 <0>        -0.0746
     17 C17         4.6242   -2.4243    3.2705 C.3       1 <0>        -0.0681
     18 C18         5.9974   -8.2574   -1.9467 C.3       1 <0>        -0.0944
     19 C19         5.9763   -2.9527    3.7531 C.3       1 <0>        -0.0918
     20 C20         5.1203   -2.1076   -3.7746 C.3       1 <0>        -0.1192
     21 C21         4.5564   -1.3488   -2.5679 C.3       1 <0>        -0.0916
     22 C22         6.2766   -1.3646   -4.4322 C.3       1 <0>         0.1883
     23 C23         3.4544   -2.1251   -1.8653 C.3       1 <0>         0.1952
     24 N1          3.2389   -5.6437   -1.9056 N.pl3     1 <0>        -0.7670
     25 N2          3.5192   -1.7560    0.5781 N.am      1 <0>        -0.4509
     26 N3          6.3666    2.1153   -5.9029 N.pl3     1 <0>        -0.8477
     27 N4          8.1063    0.4860   -5.6311 N.pl3     1 <0>        -0.8633
     28 N5          5.8764   -0.0411   -4.8880 N.pl3     1 <0>        -0.7419
     29 N6          2.2741   -2.2179   -2.7432 N.pl3     1 <0>        -0.8860
     30 O1          2.2729    0.3351    3.2940 O.2       1 <0>        -0.5199
     31 O2          2.0685   -0.5400   -0.7710 O.2       1 <0>        -0.6131
     32 O3         -0.1165   -3.1121   -3.0880 O.2       1 <0>        -0.6576
     33 O4          1.2896   -4.0436   -1.2226 O.2       1 <0>        -0.6482
     34 O5          1.4223   -1.3294    1.9894 O.3       1 <0>        -0.6303
     35 S1          1.1775   -3.5081   -2.5659 S.o2      1 <0>         1.5193
     36 H1          1.5799   -5.5947   -6.9271 H         1 <0>         0.1426
     37 H2          3.2711   -7.2499   -6.2157 H         1 <0>         0.1398
     38 H3          0.6792   -3.9566   -5.2858 H         1 <0>         0.1599
     39 H4          3.8515   -8.5347   -3.5798 H         1 <0>         0.0574
     40 H5          5.0968   -7.7238   -4.5461 H         1 <0>         0.0629
     41 H6          2.8510   -3.4591    2.6203 H         1 <0>         0.0614
     42 H7          4.2939   -4.4553    2.5428 H         1 <0>         0.0593
     43 H8          5.7524   -1.0436    2.0413 H         1 <0>         0.0841
     44 H9          4.8832   -0.2779    3.3625 H         1 <0>         0.0679
     45 H10         5.0934   -3.1114    0.5668 H         1 <0>         0.0826
     46 H11         3.5122   -3.8428    0.2819 H         1 <0>         0.0383
     47 H12         3.4420   -7.5692   -1.1218 H         1 <0>         0.0556
     48 H13         4.5874   -6.3794   -0.4991 H         1 <0>         0.0415
     49 H14         3.9015    0.2290    1.1168 H         1 <0>         0.0851
     50 H15         5.7334   -6.2764   -2.7038 H         1 <0>         0.0639
     51 H16         4.0032   -2.2947    4.1661 H         1 <0>         0.0584
     52 H17         6.6935   -7.8722   -1.1957 H         1 <0>         0.0401
     53 H18         5.3996   -9.0505   -1.4878 H         1 <0>         0.0440
     54 H19         6.5793   -8.6936   -2.7641 H         1 <0>         0.0459
     55 H20         5.8782   -3.4157    4.7396 H         1 <0>         0.0456
     56 H21         6.3665   -3.7022    3.0580 H         1 <0>         0.0366
     57 H22         6.7034   -2.1384    3.8257 H         1 <0>         0.0474
     58 H23         5.4592   -3.1007   -3.4560 H         1 <0>         0.0800
     59 H24         4.3307   -2.2553   -4.5204 H         1 <0>         0.0681
     60 H25         4.1906   -0.3664   -2.8945 H         1 <0>         0.0740
     61 H26         5.3633   -1.1575   -1.8491 H         1 <0>         0.0631
     62 H27         6.6666   -1.9201   -5.2910 H         1 <0>         0.0970
     63 H28         7.0930   -1.2338   -3.7147 H         1 <0>         0.0725
     64 H29         3.7703   -3.1244   -1.5692 H         1 <0>         0.0839
     65 H30         2.7759   -5.0262   -1.2500 H         1 <0>         0.4531
     66 H31         5.4041    2.4285   -5.8100 H         1 <0>         0.4798
     67 H32         7.0268    2.7620   -6.3283 H         1 <0>         0.4881
     68 H33         8.4388   -0.4263   -5.3285 H         1 <0>         0.4801
     69 H34         8.7827    1.1182   -6.0523 H         1 <0>         0.4806
     70 H35         4.9060    0.2597   -4.7858 H         1 <0>         0.4689
     71 H36         1.9407   -1.3323   -3.1385 H         1 <0>         0.4505
     72 H37         0.5902   -1.1952    2.4913 H         1 <0>         0.4443
@<TRIPOS>BOND
     1    1    2 ar
     2    1    3 ar
     3    2    4 ar
     4    3    6 ar
     5    4    5 ar
     6    4   10 1
     7    5    6 ar
     8    5   24 1
     9    6   35 1
    10    7   15 1
    11    7   30 2
    12    7   34 1
    13    8   23 1
    14    8   25 am
    15    8   31 2
    16    9   26 1
    17    9   27 1
    18    9   28 1
    19   10   16 1
    20   11   13 1
    21   11   17 1
    22   12   15 1
    23   12   17 1
    24   13   25 1
    25   14   16 1
    26   14   24 1
    27   15   25 1
    28   16   18 1
    29   17   19 1
    30   20   21 1
    31   20   22 1
    32   21   23 1
    33   22   28 1
    34   23   29 1
    35   29   35 1
    36   32   35 2
    37   33   35 2
    38    1   36 1
    39    2   37 1
    40    3   38 1
    41   10   39 1
    42   10   40 1
    43   11   41 1
    44   11   42 1
    45   12   43 1
    46   12   44 1
    47   13   45 1
    48   13   46 1
    49   14   47 1
    50   14   48 1
    51   15   49 1
    52   16   50 1
    53   17   51 1
    54   18   52 1
    55   18   53 1
    56   18   54 1
    57   19   55 1
    58   19   56 1
    59   19   57 1
    60   20   58 1
    61   20   59 1
    62   21   60 1
    63   21   61 1
    64   22   62 1
    65   22   63 1
    66   23   64 1
    67   24   65 1
    68   26   66 1
    69   26   67 1
    70   27   68 1
    71   27   69 1
    72   28   70 1
    73   29   71 1
    74   34   72 1
@<TRIPOS>MOLECULE
1dwc_ligand_186
   72    74     0     0     0
SMALL
USER_CHARGES

mmff94s_NoEstat = 79.14
@<TRIPOS>ATOM
      1 C1         -1.8811   -7.3955    2.4466 C.ar      1 <0>        -0.1945
      2 C2         -2.1524   -7.9421    3.6991 C.ar      1 <0>        -0.0294
      3 C3         -0.8111   -6.5198    2.2891 C.ar      1 <0>        -0.0143
      4 C4         -1.3553   -7.6120    4.8047 C.ar      1 <0>        -0.1552
      5 C5         -0.2531   -6.7489    4.6476 C.ar      1 <0>         0.3076
      6 C6         -0.0057   -6.1967    3.3824 C.ar      1 <0>        -0.4908
      7 C7         -1.2359   -0.6984    0.6725 C.2       1 <0>         0.5994
      8 C8          0.8654   -1.4427    3.2413 C.2       1 <0>         0.6462
      9 C9         -3.2174   -1.4380    8.5188 C.cat     1 <0>         0.6305
     10 C10        -1.6602   -8.2210    6.1522 C.3       1 <0>        -0.0319
     11 C11         1.8315    1.4466    1.1834 C.3       1 <0>        -0.0918
     12 C12         0.9831   -0.3423   -0.3484 C.3       1 <0>        -0.0841
     13 C13         1.0260    0.8397    2.3251 C.3       1 <0>         0.0870
     14 C14         0.4274   -7.1008    6.9892 C.3       1 <0>         0.2023
     15 C15         0.2462   -1.0009    0.8207 C.3       1 <0>         0.0778
     16 C16        -1.0343   -7.4292    7.3118 C.3       1 <0>        -0.0746
     17 C17         1.1635    1.1707   -0.1661 C.3       1 <0>        -0.0681
     18 C18        -1.8422   -6.1701    7.6463 C.3       1 <0>        -0.0944
     19 C19         1.9862    1.7609   -1.3098 C.3       1 <0>        -0.0918
     20 C20        -1.0866   -2.1427    5.4567 C.3       1 <0>        -0.1192
     21 C21        -1.3133   -2.4479    3.9716 C.3       1 <0>        -0.0916
     22 C22        -2.3970   -1.9935    6.2196 C.3       1 <0>         0.1883
     23 C23        -0.0078   -2.6730    3.2260 C.3       1 <0>         0.1952
     24 N1          0.5495   -6.3981    5.7259 N.pl3     1 <0>        -0.7670
     25 N2          0.7744   -0.5925    2.1333 N.am      1 <0>        -0.4509
     26 N3         -2.9736   -1.1414    9.8558 N.pl3     1 <0>        -0.8477
     27 N4         -4.5309   -1.4955    8.0658 N.pl3     1 <0>        -0.8633
     28 N5         -2.1703   -1.6789    7.6229 N.pl3     1 <0>        -0.7419
     29 N6          0.7961   -3.6905    3.9267 N.pl3     1 <0>        -0.8860
     30 O1         -1.8192    0.2321    1.2084 O.2       1 <0>        -0.5199
     31 O2          1.6103   -1.2468    4.2054 O.2       1 <0>        -0.6131
     32 O3          2.5030   -5.6116    3.7560 O.2       1 <0>        -0.6576
     33 O4          1.3467   -4.8031    1.6743 O.2       1 <0>        -0.6482
     34 O5         -1.8312   -1.6071   -0.1380 O.3       1 <0>        -0.6303
     35 S1          1.3247   -5.0804    3.0977 S.o2      1 <0>         1.5193
     36 H1         -2.5060   -7.6499    1.5947 H         1 <0>         0.1426
     37 H2         -2.9923   -8.6232    3.8135 H         1 <0>         0.1398
     38 H3         -0.5938   -6.0831    1.3193 H         1 <0>         0.1599
     39 H4         -2.7449   -8.2917    6.2993 H         1 <0>         0.0574
     40 H5         -1.2589   -9.2425    6.1550 H         1 <0>         0.0629
     41 H6          1.9320    2.5271    1.3399 H         1 <0>         0.0614
     42 H7          2.8448    1.0248    1.1881 H         1 <0>         0.0593
     43 H8          1.9753   -0.8057   -0.4365 H         1 <0>         0.0841
     44 H9          0.4607   -0.5403   -1.2930 H         1 <0>         0.0679
     45 H10         1.5496    1.0140    3.2709 H         1 <0>         0.0826
     46 H11         0.0484    1.3304    2.4051 H         1 <0>         0.0383
     47 H12         0.8663   -6.4902    7.7861 H         1 <0>         0.0556
     48 H13         1.0113   -8.0280    6.9371 H         1 <0>         0.0415
     49 H14         0.3330   -2.0869    0.7143 H         1 <0>         0.0851
     50 H15        -1.0595   -8.0597    8.2092 H         1 <0>         0.0639
     51 H16         0.1795    1.6553   -0.1825 H         1 <0>         0.0584
     52 H17        -2.6327   -6.0129    6.9064 H         1 <0>         0.0401
     53 H18        -2.3068   -6.2621    8.6326 H         1 <0>         0.0440
     54 H19        -1.1948   -5.2881    7.6513 H         1 <0>         0.0459
     55 H20         1.9407    1.1129   -2.1902 H         1 <0>         0.0456
     56 H21         1.6048    2.7479   -1.5883 H         1 <0>         0.0366
     57 H22         3.0342    1.8673   -1.0143 H         1 <0>         0.0474
     58 H23        -0.4913   -2.9455    5.9081 H         1 <0>         0.0800
     59 H24        -0.5143   -1.2136    5.5600 H         1 <0>         0.0681
     60 H25        -1.8840   -1.6286    3.5148 H         1 <0>         0.0740
     61 H26        -1.9315   -3.3495    3.8758 H         1 <0>         0.0631
     62 H27        -2.9930   -2.9100    6.1652 H         1 <0>         0.0970
     63 H28        -2.9889   -1.1790    5.7901 H         1 <0>         0.0725
     64 H29        -0.1638   -2.9774    2.1921 H         1 <0>         0.0839
     65 H30         1.3727   -5.8359    5.5480 H         1 <0>         0.4531
     66 H31        -2.0306   -1.0905   10.2318 H         1 <0>         0.4798
     67 H32        -3.7410   -0.9681   10.5009 H         1 <0>         0.4881
     68 H33        -4.7448   -1.7097    7.0948 H         1 <0>         0.4801
     69 H34        -5.3125   -1.3238    8.6938 H         1 <0>         0.4806
     70 H35        -1.2168   -1.6295    7.9850 H         1 <0>         0.4689
     71 H36         1.3354   -3.3564    4.7325 H         1 <0>         0.4505
     72 H37        -2.7902   -1.4300   -0.2450 H         1 <0>         0.4443
@<TRIPOS>BOND
     1    1    2 ar
     2    1    3 ar
     3    2    4 ar
     4    3    6 ar
     5    4    5 ar
     6    4   10 1
     7    5    6 ar
     8    5   24 1
     9    6   35 1
    10    7   15 1
    11    7   30 2
    12    7   34 1
    13    8   23 1
    14    8   25 am
    15    8   31 2
    16    9   26 1
    17    9   27 1
    18    9   28 1
    19   10   16 1
    20   11   13 1
    21   11   17 1
    22   12   15 1
    23   12   17 1
    24   13   25 1
    25   14   16 1
    26   14   24 1
    27   15   25 1
    28   16   18 1
    29   17   19 1
    30   20   21 1
    31   20   22 1
    32   21   23 1
    33   22   28 1
    34   23   29 1
    35   29   35 1
    36   32   35 2
    37   33   35 2
    38    1   36 1
    39    2   37 1
    40    3   38 1
    41   10   39 1
    42   10   40 1
    43   11   41 1
    44   11   42 1
    45   12   43 1
    46   12   44 1
    47   13   45 1
    48   13   46 1
    49   14   47 1
    50   14   48 1
    51   15   49 1
    52   16   50 1
    53   17   51 1
    54   18   52 1
    55   18   53 1
    56   18   54 1
    57   19   55 1
    58   19   56 1
    59   19   57 1
    60   20   58 1
    61   20   59 1
    62   21   60 1
    63   21   61 1
    64   22   62 1
    65   22   63 1
    66   23   64 1
    67   24   65 1
    68   26   66 1
    69   26   67 1
    70   27   68 1
    71   27   69 1
    72   28   70 1
    73   29   71 1
    74   34   72 1
@<TRIPOS>MOLECULE
1dwc_ligand_187
   72    74     0     0     0
SMALL
USER_CHARGES

mmff94s_NoEstat = 79.17
@<TRIPOS>ATOM
      1 C1         -2.8453   -5.2759    6.6308 C.ar      1 <0>        -0.1945
      2 C2         -2.2322   -5.1306    7.8734 C.ar      1 <0>        -0.0294
      3 C3         -2.0700   -5.3199    5.4760 C.ar      1 <0>        -0.0143
      4 C4         -0.8370   -5.0243    7.9679 C.ar      1 <0>        -0.1552
      5 C5         -0.0434   -5.0968    6.8063 C.ar      1 <0>         0.3076
      6 C6         -0.6800   -5.2276    5.5634 C.ar      1 <0>        -0.4908
      7 C7          1.0326   -1.5891   -0.1526 C.2       1 <0>         0.5994
      8 C8          0.8654   -1.4427    3.2413 C.2       1 <0>         0.6462
      9 C9         -3.9804   -3.0789    0.6325 C.cat     1 <0>         0.6305
     10 C10        -0.1907   -4.8756    9.3242 C.3       1 <0>        -0.0319
     11 C11         4.0928   -0.4819    1.7658 C.3       1 <0>        -0.0918
     12 C12         3.2369   -2.4756    0.5172 C.3       1 <0>        -0.0841
     13 C13         2.6673   -0.1389    2.1793 C.3       1 <0>         0.0870
     14 C14         2.0228   -5.0431    8.1470 C.3       1 <0>         0.2023
     15 C15         1.8171   -2.1794    1.0075 C.3       1 <0>         0.0778
     16 C16         1.2359   -4.3091    9.2381 C.3       1 <0>        -0.0746
     17 C17         4.1123   -1.2187    0.4240 C.3       1 <0>        -0.0681
     18 C18         1.2365   -2.7918    9.0202 C.3       1 <0>        -0.0944
     19 C19         5.5413   -1.5810    0.0243 C.3       1 <0>        -0.0918
     20 C20        -2.1115   -1.2711    3.3990 C.3       1 <0>        -0.1192
     21 C21        -1.3133   -2.4479    3.9716 C.3       1 <0>        -0.0916
     22 C22        -2.5427   -1.5156    1.9582 C.3       1 <0>         0.1883
     23 C23        -0.0078   -2.6730    3.2260 C.3       1 <0>         0.1952
     24 N1          1.3401   -4.9869    6.8682 N.pl3     1 <0>        -0.7670
     25 N2          1.7920   -1.3156    2.2000 N.am      1 <0>        -0.4509
     26 N3         -4.8018   -4.1986    0.5514 N.pl3     1 <0>        -0.8477
     27 N4         -3.7248   -2.3408   -0.5181 N.pl3     1 <0>        -0.8633
     28 N5         -3.4075   -2.6813    1.8454 N.pl3     1 <0>        -0.7419
     29 N6          0.7961   -3.6905    3.9267 N.pl3     1 <0>        -0.8860
     30 O1          0.8941   -0.3947   -0.3706 O.2       1 <0>        -0.5199
     31 O2          0.7326   -0.6231    4.1542 O.2       1 <0>        -0.6131
     32 O3          1.3500   -6.1855    4.2455 O.2       1 <0>        -0.6576
     33 O4         -0.7339   -5.5366    2.9962 O.2       1 <0>        -0.6482
     34 O5          0.4997   -2.5717   -0.9193 O.3       1 <0>        -0.6303
     35 S1          0.2254   -5.2894    4.0556 S.o2      1 <0>         1.5193
     36 H1         -3.9272   -5.3514    6.5631 H         1 <0>         0.1426
     37 H2         -2.8460   -5.0943    8.7703 H         1 <0>         0.1398
     38 H3         -2.5369   -5.4268    4.5019 H         1 <0>         0.1599
     39 H4         -0.8030   -4.2318    9.9673 H         1 <0>         0.0574
     40 H5         -0.1565   -5.8697    9.7881 H         1 <0>         0.0629
     41 H6          4.6862    0.4377    1.6990 H         1 <0>         0.0614
     42 H7          4.5556   -1.1085    2.5390 H         1 <0>         0.0593
     43 H8          3.7056   -3.1781    1.2199 H         1 <0>         0.0841
     44 H9          3.2100   -2.9795   -0.4573 H         1 <0>         0.0679
     45 H10         2.6813    0.3462    3.1608 H         1 <0>         0.0826
     46 H11         2.2276    0.5771    1.4744 H         1 <0>         0.0383
     47 H12         3.0237   -4.6099    8.0414 H         1 <0>         0.0556
     48 H13         2.1566   -6.0940    8.4317 H         1 <0>         0.0415
     49 H14         1.3264   -3.1308    1.2358 H         1 <0>         0.0851
     50 H15         1.7316   -4.4829   10.2012 H         1 <0>         0.0639
     51 H16         3.7098   -0.5563   -0.3523 H         1 <0>         0.0584
     52 H17         0.2205   -2.4295    8.8367 H         1 <0>         0.0401
     53 H18         1.6320   -2.2769    9.9008 H         1 <0>         0.0440
     54 H19         1.8571   -2.5275    8.1588 H         1 <0>         0.0459
     55 H20         5.5642   -2.5489   -0.4852 H         1 <0>         0.0456
     56 H21         5.9547   -0.8262   -0.6513 H         1 <0>         0.0366
     57 H22         6.1838   -1.6417    0.9078 H         1 <0>         0.0474
     58 H23        -2.9980   -1.0942    4.0198 H         1 <0>         0.0800
     59 H24        -1.5025   -0.3604    3.4316 H         1 <0>         0.0681
     60 H25        -1.9335   -3.3536    3.9489 H         1 <0>         0.0740
     61 H26        -1.0849   -2.2531    5.0271 H         1 <0>         0.0631
     62 H27        -1.6765   -1.6664    1.3061 H         1 <0>         0.0970
     63 H28        -3.1019   -0.6522    1.5838 H         1 <0>         0.0725
     64 H29        -0.1638   -2.9774    2.1921 H         1 <0>         0.0839
     65 H30         1.8703   -5.1206    6.0159 H         1 <0>         0.4531
     66 H31        -5.0147   -4.7691    1.3653 H         1 <0>         0.4798
     67 H32        -5.2139   -4.4811   -0.3349 H         1 <0>         0.4881
     68 H33        -3.1288   -1.5169   -0.4944 H         1 <0>         0.4801
     69 H34        -4.1283   -2.6051   -1.4136 H         1 <0>         0.4806
     70 H35        -3.6137   -3.2432    2.6727 H         1 <0>         0.4689
     71 H36         1.8068   -3.5190    3.9555 H         1 <0>         0.4505
     72 H37        -0.0129   -2.2104   -1.6737 H         1 <0>         0.4443
@<TRIPOS>BOND
     1    1    2 ar
     2    1    3 ar
     3    2    4 ar
     4    3    6 ar
     5    4    5 ar
     6    4   10 1
     7    5    6 ar
     8    5   24 1
     9    6   35 1
    10    7   15 1
    11    7   30 2
    12    7   34 1
    13    8   23 1
    14    8   25 am
    15    8   31 2
    16    9   26 1
    17    9   27 1
    18    9   28 1
    19   10   16 1
    20   11   13 1
    21   11   17 1
    22   12   15 1
    23   12   17 1
    24   13   25 1
    25   14   16 1
    26   14   24 1
    27   15   25 1
    28   16   18 1
    29   17   19 1
    30   20   21 1
    31   20   22 1
    32   21   23 1
    33   22   28 1
    34   23   29 1
    35   29   35 1
    36   32   35 2
    37   33   35 2
    38    1   36 1
    39    2   37 1
    40    3   38 1
    41   10   39 1
    42   10   40 1
    43   11   41 1
    44   11   42 1
    45   12   43 1
    46   12   44 1
    47   13   45 1
    48   13   46 1
    49   14   47 1
    50   14   48 1
    51   15   49 1
    52   16   50 1
    53   17   51 1
    54   18   52 1
    55   18   53 1
    56   18   54 1
    57   19   55 1
    58   19   56 1
    59   19   57 1
    60   20   58 1
    61   20   59 1
    62   21   60 1
    63   21   61 1
    64   22   62 1
    65   22   63 1
    66   23   64 1
    67   24   65 1
    68   26   66 1
    69   26   67 1
    70   27   68 1
    71   27   69 1
    72   28   70 1
    73   29   71 1
    74   34   72 1
@<TRIPOS>MOLECULE
1dwc_ligand_188
   72    74     0     0     0
SMALL
USER_CHARGES

mmff94s_NoEstat = 79.18
@<TRIPOS>ATOM
      1 C1         -3.2355   -5.0148    6.4799 C.ar      1 <0>        -0.1945
      2 C2         -4.2884   -5.5400    5.7336 C.ar      1 <0>        -0.0294
      3 C3         -2.6234   -3.8310    6.0789 C.ar      1 <0>        -0.0143
      4 C4         -4.7385   -4.8800    4.5812 C.ar      1 <0>        -0.1552
      5 C5         -4.1052   -3.6965    4.1523 C.ar      1 <0>         0.3076
      6 C6         -3.0575   -3.1757    4.9254 C.ar      1 <0>        -0.4908
      7 C7          4.0428   -2.6510    3.1279 C.2       1 <0>         0.5994
      8 C8          0.8654   -1.4427    3.2413 C.2       1 <0>         0.6462
      9 C9          0.2237   -3.7376   -2.9912 C.cat     1 <0>         0.6305
     10 C10        -5.8759   -5.4673    3.7804 C.3       1 <0>        -0.0319
     11 C11         3.0349   -0.4758    6.0475 C.3       1 <0>        -0.0918
     12 C12         3.4817   -2.8819    5.5206 C.3       1 <0>        -0.0841
     13 C13         2.5314   -0.2662    4.6251 C.3       1 <0>         0.0870
     14 C14        -5.4818   -3.6385    2.1112 C.3       1 <0>         0.2023
     15 C15         2.8926   -2.6899    4.1206 C.3       1 <0>         0.0778
     16 C16        -6.5499   -4.4038    2.8993 C.3       1 <0>        -0.0746
     17 C17         4.0802   -1.5931    6.1000 C.3       1 <0>        -0.0681
     18 C18        -7.5704   -5.0425    1.9612 C.3       1 <0>        -0.0944
     19 C19         4.5654   -1.8157    7.5311 C.3       1 <0>        -0.0918
     20 C20         0.0249   -2.8727    0.7002 C.3       1 <0>        -0.1192
     21 C21         0.3004   -3.5693    2.0376 C.3       1 <0>        -0.0916
     22 C22         0.2602   -3.7963   -0.4886 C.3       1 <0>         0.1883
     23 C23        -0.0078   -2.6730    3.2260 C.3       1 <0>         0.1952
     24 N1         -4.5300   -3.0206    3.0151 N.pl3     1 <0>        -0.7670
     25 N2          2.0252   -1.5038    4.0223 N.am      1 <0>        -0.4509
     26 N3         -0.0152   -3.0669   -4.1862 N.pl3     1 <0>        -0.8477
     27 N4          0.6744   -5.0526   -3.0302 N.pl3     1 <0>        -0.8633
     28 N5          0.0202   -3.1173   -1.7538 N.pl3     1 <0>        -0.7419
     29 N6         -1.3760   -2.1385    3.1042 N.pl3     1 <0>        -0.8860
     30 O1          5.1343   -3.1736    3.2976 O.2       1 <0>        -0.5199
     31 O2          0.5240   -0.4555    2.5844 O.2       1 <0>        -0.6131
     32 O3         -3.2514   -0.7039    4.1330 O.2       1 <0>        -0.6576
     33 O4         -1.2997   -1.3890    5.5632 O.2       1 <0>        -0.6482
     34 O5          3.6956   -1.9512    2.0202 O.3       1 <0>        -0.6303
     35 S1         -2.2397   -1.6774    4.4970 S.o2      1 <0>         1.5193
     36 H1         -2.8954   -5.5270    7.3757 H         1 <0>         0.1426
     37 H2         -4.7626   -6.4639    6.0561 H         1 <0>         0.1398
     38 H3         -1.8065   -3.4094    6.6557 H         1 <0>         0.1599
     39 H4         -5.4767   -6.2793    3.1592 H         1 <0>         0.0574
     40 H5         -6.6243   -5.8997    4.4558 H         1 <0>         0.0629
     41 H6          3.4643    0.4595    6.4257 H         1 <0>         0.0614
     42 H7          2.1893   -0.7290    6.6997 H         1 <0>         0.0593
     43 H8          2.6805   -3.2276    6.1882 H         1 <0>         0.0841
     44 H9          4.2439   -3.6714    5.5123 H         1 <0>         0.0679
     45 H10         1.7550    0.5058    4.6255 H         1 <0>         0.0826
     46 H11         3.3431    0.0962    3.9827 H         1 <0>         0.0383
     47 H12        -4.9499   -4.3126    1.4283 H         1 <0>         0.0556
     48 H13        -5.9488   -2.8592    1.4988 H         1 <0>         0.0415
     49 H14         2.3173   -3.5850    3.8636 H         1 <0>         0.0851
     50 H15        -7.0837   -3.6956    3.5475 H         1 <0>         0.0639
     51 H16         4.9487   -1.2974    5.4988 H         1 <0>         0.0584
     52 H17        -8.2149   -4.2783    1.5167 H         1 <0>         0.0401
     53 H18        -7.0658   -5.5804    1.1530 H         1 <0>         0.0440
     54 H19        -8.2016   -5.7514    2.5054 H         1 <0>         0.0459
     55 H20         4.4326   -2.8615    7.8238 H         1 <0>         0.0456
     56 H21         5.6267   -1.5650    7.6207 H         1 <0>         0.0366
     57 H22         4.0032   -1.1886    8.2295 H         1 <0>         0.0474
     58 H23        -1.0105   -2.5120    0.6824 H         1 <0>         0.0800
     59 H24         0.6776   -1.9980    0.5976 H         1 <0>         0.0681
     60 H25         1.3460   -3.9033    2.0652 H         1 <0>         0.0740
     61 H26        -0.3175   -4.4733    2.1109 H         1 <0>         0.0631
     62 H27        -0.3909   -4.6751   -0.4416 H         1 <0>         0.0970
     63 H28         1.2981   -4.1440   -0.4920 H         1 <0>         0.0725
     64 H29         0.1003   -3.1895    4.1787 H         1 <0>         0.0839
     65 H30        -3.9968   -2.2176    2.7049 H         1 <0>         0.4531
     66 H31        -0.3470   -2.1063   -4.2064 H         1 <0>         0.4798
     67 H32         0.1347   -3.5257   -5.0818 H         1 <0>         0.4881
     68 H33         0.8589   -5.5723   -2.1756 H         1 <0>         0.4801
     69 H34         0.8324   -5.5290   -3.9149 H         1 <0>         0.4806
     70 H35        -0.3110   -2.1514   -1.7574 H         1 <0>         0.4689
     71 H36        -1.6042   -1.6955    2.2078 H         1 <0>         0.4505
     72 H37         4.4265   -1.9129    1.3670 H         1 <0>         0.4443
@<TRIPOS>BOND
     1    1    2 ar
     2    1    3 ar
     3    2    4 ar
     4    3    6 ar
     5    4    5 ar
     6    4   10 1
     7    5    6 ar
     8    5   24 1
     9    6   35 1
    10    7   15 1
    11    7   30 2
    12    7   34 1
    13    8   23 1
    14    8   25 am
    15    8   31 2
    16    9   26 1
    17    9   27 1
    18    9   28 1
    19   10   16 1
    20   11   13 1
    21   11   17 1
    22   12   15 1
    23   12   17 1
    24   13   25 1
    25   14   16 1
    26   14   24 1
    27   15   25 1
    28   16   18 1
    29   17   19 1
    30   20   21 1
    31   20   22 1
    32   21   23 1
    33   22   28 1
    34   23   29 1
    35   29   35 1
    36   32   35 2
    37   33   35 2
    38    1   36 1
    39    2   37 1
    40    3   38 1
    41   10   39 1
    42   10   40 1
    43   11   41 1
    44   11   42 1
    45   12   43 1
    46   12   44 1
    47   13   45 1
    48   13   46 1
    49   14   47 1
    50   14   48 1
    51   15   49 1
    52   16   50 1
    53   17   51 1
    54   18   52 1
    55   18   53 1
    56   18   54 1
    57   19   55 1
    58   19   56 1
    59   19   57 1
    60   20   58 1
    61   20   59 1
    62   21   60 1
    63   21   61 1
    64   22   62 1
    65   22   63 1
    66   23   64 1
    67   24   65 1
    68   26   66 1
    69   26   67 1
    70   27   68 1
    71   27   69 1
    72   28   70 1
    73   29   71 1
    74   34   72 1
@<TRIPOS>MOLECULE
1dwc_ligand_189
   72    74     0     0     0
SMALL
USER_CHARGES

mmff94s_NoEstat = 79.19
@<TRIPOS>ATOM
      1 C1          3.0864   -6.8132   -1.6121 C.ar      1 <0>        -0.1945
      2 C2          2.0235   -6.9752   -0.7260 C.ar      1 <0>        -0.0294
      3 C3          3.0725   -5.7656   -2.5283 C.ar      1 <0>        -0.0143
      4 C4          0.9399   -6.0855   -0.7488 C.ar      1 <0>        -0.1552
      5 C5          0.9045   -5.0397   -1.6925 C.ar      1 <0>         0.3076
      6 C6          1.9909   -4.8841   -2.5656 C.ar      1 <0>        -0.4908
      7 C7          2.4038   -0.4910    2.4030 C.2       1 <0>         0.5994
      8 C8          2.9466   -1.3973   -0.6457 C.2       1 <0>         0.6462
      9 C9          8.4655   -1.6847   -3.4911 C.cat     1 <0>         0.6305
     10 C10        -0.2069   -6.2806    0.2139 C.3       1 <0>        -0.0319
     11 C11         3.9178   -3.4419    2.3602 C.3       1 <0>        -0.0918
     12 C12         4.8012   -1.0545    2.5913 C.3       1 <0>        -0.0841
     13 C13         4.0430   -3.0960    0.8803 C.3       1 <0>         0.0870
     14 C14        -1.3613   -4.3977   -0.9727 C.3       1 <0>         0.2023
     15 C15         3.6790   -0.7248    1.6100 C.3       1 <0>         0.0778
     16 C16        -1.0112   -4.9842    0.3988 C.3       1 <0>        -0.0746
     17 C17         4.6242   -2.4243    3.2705 C.3       1 <0>        -0.0681
     18 C18        -2.2700   -5.2387    1.2234 C.3       1 <0>        -0.0944
     19 C19         5.9763   -2.9527    3.7531 C.3       1 <0>        -0.0918
     20 C20         5.7415   -1.0578   -1.6401 C.3       1 <0>        -0.1192
     21 C21         4.5564   -1.3488   -2.5679 C.3       1 <0>        -0.0916
     22 C22         6.8115   -0.2136   -2.3213 C.3       1 <0>         0.1883
     23 C23         3.4544   -2.1251   -1.8653 C.3       1 <0>         0.1952
     24 N1         -0.1556   -4.1426   -1.7381 N.pl3     1 <0>        -0.7670
     25 N2          3.5192   -1.7560    0.5781 N.am      1 <0>        -0.4509
     26 N3          8.9413   -2.2972   -4.6458 N.pl3     1 <0>        -0.8477
     27 N4          9.1326   -1.8934   -2.2888 N.pl3     1 <0>        -0.8633
     28 N5          7.3321   -0.8648   -3.5148 N.pl3     1 <0>        -0.7419
     29 N6          2.2741   -2.2179   -2.7432 N.pl3     1 <0>        -0.8860
     30 O1          2.2729    0.3351    3.2940 O.2       1 <0>        -0.5199
     31 O2          2.0685   -0.5400   -0.7710 O.2       1 <0>        -0.6131
     32 O3          3.2466   -3.7694   -4.5546 O.2       1 <0>        -0.6576
     33 O4          0.7526   -3.5048   -4.3692 O.2       1 <0>        -0.6482
     34 O5          1.4223   -1.3294    1.9894 O.3       1 <0>        -0.6303
     35 S1          2.0591   -3.5786   -3.7438 S.o2      1 <0>         1.5193
     36 H1          3.9266   -7.5016   -1.5854 H         1 <0>         0.1426
     37 H2          2.0443   -7.7948   -0.0116 H         1 <0>         0.1398
     38 H3          3.8977   -5.6260   -3.2193 H         1 <0>         0.1599
     39 H4         -0.8529   -7.0772   -0.1766 H         1 <0>         0.0574
     40 H5          0.1751   -6.6074    1.1889 H         1 <0>         0.0629
     41 H6          2.8510   -3.4591    2.6203 H         1 <0>         0.0614
     42 H7          4.2939   -4.4553    2.5428 H         1 <0>         0.0593
     43 H8          5.7524   -1.0436    2.0413 H         1 <0>         0.0841
     44 H9          4.8832   -0.2779    3.3625 H         1 <0>         0.0679
     45 H10         5.0934   -3.1114    0.5668 H         1 <0>         0.0826
     46 H11         3.5122   -3.8428    0.2819 H         1 <0>         0.0383
     47 H12        -2.0084   -5.0849   -1.5319 H         1 <0>         0.0556
     48 H13        -1.9126   -3.4583   -0.8533 H         1 <0>         0.0415
     49 H14         3.9015    0.2290    1.1168 H         1 <0>         0.0851
     50 H15        -0.3913   -4.2593    0.9436 H         1 <0>         0.0639
     51 H16         4.0032   -2.2947    4.1661 H         1 <0>         0.0584
     52 H17        -2.7070   -4.2936    1.5593 H         1 <0>         0.0401
     53 H18        -3.0178   -5.7721    0.6290 H         1 <0>         0.0440
     54 H19        -2.0361   -5.8426    2.1053 H         1 <0>         0.0459
     55 H20         5.8782   -3.4157    4.7396 H         1 <0>         0.0456
     56 H21         6.3665   -3.7022    3.0580 H         1 <0>         0.0366
     57 H22         6.7034   -2.1384    3.8257 H         1 <0>         0.0474
     58 H23         5.3842   -0.5386   -0.7426 H         1 <0>         0.0800
     59 H24         6.1956   -2.0004   -1.3135 H         1 <0>         0.0681
     60 H25         4.9119   -1.8947   -3.4517 H         1 <0>         0.0740
     61 H26         4.1396   -0.4017   -2.9334 H         1 <0>         0.0631
     62 H27         7.6493   -0.0157   -1.6451 H         1 <0>         0.0970
     63 H28         6.3893    0.7487   -2.6278 H         1 <0>         0.0725
     64 H29         3.7703   -3.1244   -1.5692 H         1 <0>         0.0839
     65 H30        -0.1728   -3.4550   -2.4811 H         1 <0>         0.4531
     66 H31         8.4853   -2.1751   -5.5460 H         1 <0>         0.4798
     67 H32         9.7660   -2.8925   -4.6196 H         1 <0>         0.4881
     68 H33         8.8117   -1.4610   -1.4259 H         1 <0>         0.4801
     69 H34         9.9599   -2.4833   -2.2412 H         1 <0>         0.4806
     70 H35         6.8639   -0.7306   -4.4123 H         1 <0>         0.4689
     71 H36         1.4502   -1.6870   -2.4414 H         1 <0>         0.4505
     72 H37         0.5902   -1.1952    2.4913 H         1 <0>         0.4443
@<TRIPOS>BOND
     1    1    2 ar
     2    1    3 ar
     3    2    4 ar
     4    3    6 ar
     5    4    5 ar
     6    4   10 1
     7    5    6 ar
     8    5   24 1
     9    6   35 1
    10    7   15 1
    11    7   30 2
    12    7   34 1
    13    8   23 1
    14    8   25 am
    15    8   31 2
    16    9   26 1
    17    9   27 1
    18    9   28 1
    19   10   16 1
    20   11   13 1
    21   11   17 1
    22   12   15 1
    23   12   17 1
    24   13   25 1
    25   14   16 1
    26   14   24 1
    27   15   25 1
    28   16   18 1
    29   17   19 1
    30   20   21 1
    31   20   22 1
    32   21   23 1
    33   22   28 1
    34   23   29 1
    35   29   35 1
    36   32   35 2
    37   33   35 2
    38    1   36 1
    39    2   37 1
    40    3   38 1
    41   10   39 1
    42   10   40 1
    43   11   41 1
    44   11   42 1
    45   12   43 1
    46   12   44 1
    47   13   45 1
    48   13   46 1
    49   14   47 1
    50   14   48 1
    51   15   49 1
    52   16   50 1
    53   17   51 1
    54   18   52 1
    55   18   53 1
    56   18   54 1
    57   19   55 1
    58   19   56 1
    59   19   57 1
    60   20   58 1
    61   20   59 1
    62   21   60 1
    63   21   61 1
    64   22   62 1
    65   22   63 1
    66   23   64 1
    67   24   65 1
    68   26   66 1
    69   26   67 1
    70   27   68 1
    71   27   69 1
    72   28   70 1
    73   29   71 1
    74   34   72 1
@<TRIPOS>MOLECULE
1dwc_ligand_190
   72    74     0     0     0
SMALL
USER_CHARGES

mmff94s_NoEstat = 79.24
@<TRIPOS>ATOM
      1 C1          2.9804   -6.8364   -3.8826 C.ar      1 <0>        -0.1945
      2 C2          2.9418   -6.7056   -5.2692 C.ar      1 <0>        -0.0294
      3 C3          2.4346   -5.8419   -3.0764 C.ar      1 <0>        -0.0143
      4 C4          2.3519   -5.5783   -5.8586 C.ar      1 <0>        -0.1552
      5 C5          1.8230   -4.5534   -5.0490 C.ar      1 <0>         0.3076
      6 C6          1.8576   -4.7107   -3.6559 C.ar      1 <0>        -0.4908
      7 C7          2.4038   -0.4910    2.4030 C.2       1 <0>         0.5994
      8 C8          2.9466   -1.3973   -0.6457 C.2       1 <0>         0.6462
      9 C9          9.0792    0.7389   -1.8541 C.cat     1 <0>         0.6305
     10 C10         2.3255   -5.4497   -7.3628 C.3       1 <0>        -0.0319
     11 C11         3.9178   -3.4419    2.3602 C.3       1 <0>        -0.0918
     12 C12         4.8012   -1.0545    2.5913 C.3       1 <0>        -0.0841
     13 C13         4.0430   -3.0960    0.8803 C.3       1 <0>         0.0870
     14 C14         1.3521   -3.1637   -7.0268 C.3       1 <0>         0.2023
     15 C15         3.6790   -0.7248    1.6100 C.3       1 <0>         0.0778
     16 C16         1.2367   -4.4677   -7.8231 C.3       1 <0>        -0.0746
     17 C17         4.6242   -2.4243    3.2705 C.3       1 <0>        -0.0681
     18 C18         1.3410   -4.2047   -9.3229 C.3       1 <0>        -0.0944
     19 C19         5.9763   -2.9527    3.7531 C.3       1 <0>        -0.0918
     20 C20         5.7415   -1.0578   -1.6401 C.3       1 <0>        -0.1192
     21 C21         4.5564   -1.3488   -2.5679 C.3       1 <0>        -0.0916
     22 C22         6.8115   -0.2136   -2.3213 C.3       1 <0>         0.1883
     23 C23         3.4544   -2.1251   -1.8653 C.3       1 <0>         0.1952
     24 N1          1.2318   -3.4255   -5.6050 N.pl3     1 <0>        -0.7670
     25 N2          3.5192   -1.7560    0.5781 N.am      1 <0>        -0.4509
     26 N3         10.1464    0.9650   -0.9911 N.pl3     1 <0>        -0.8477
     27 N4          9.1456    1.2237   -3.1558 N.pl3     1 <0>        -0.8633
     28 N5          7.9432    0.0352   -1.4399 N.pl3     1 <0>        -0.7419
     29 N6          2.2741   -2.2179   -2.7432 N.pl3     1 <0>        -0.8860
     30 O1          2.2729    0.3351    3.2940 O.2       1 <0>        -0.5199
     31 O2          2.0685   -0.5400   -0.7710 O.2       1 <0>        -0.6131
     32 O3         -0.1165   -3.1121   -3.0880 O.2       1 <0>        -0.6576
     33 O4          1.2896   -4.0436   -1.2226 O.2       1 <0>        -0.6482
     34 O5          1.4223   -1.3294    1.9894 O.3       1 <0>        -0.6303
     35 S1          1.1775   -3.5081   -2.5659 S.o2      1 <0>         1.5193
     36 H1          3.4328   -7.7153   -3.4316 H         1 <0>         0.1426
     37 H2          3.3680   -7.4891   -5.8914 H         1 <0>         0.1398
     38 H3          2.4534   -5.9358   -1.9953 H         1 <0>         0.1599
     39 H4          3.3132   -5.1073   -7.6968 H         1 <0>         0.0574
     40 H5          2.1395   -6.4300   -7.8186 H         1 <0>         0.0629
     41 H6          2.8510   -3.4591    2.6203 H         1 <0>         0.0614
     42 H7          4.2939   -4.4553    2.5428 H         1 <0>         0.0593
     43 H8          5.7524   -1.0436    2.0413 H         1 <0>         0.0841
     44 H9          4.8832   -0.2779    3.3625 H         1 <0>         0.0679
     45 H10         5.0934   -3.1114    0.5668 H         1 <0>         0.0826
     46 H11         3.5122   -3.8428    0.2819 H         1 <0>         0.0383
     47 H12         2.3133   -2.6740   -7.2264 H         1 <0>         0.0556
     48 H13         0.5637   -2.4650   -7.3281 H         1 <0>         0.0415
     49 H14         3.9015    0.2290    1.1168 H         1 <0>         0.0851
     50 H15         0.2527   -4.9144   -7.6261 H         1 <0>         0.0639
     51 H16         4.0032   -2.2947    4.1661 H         1 <0>         0.0584
     52 H17         0.4364   -3.7110   -9.6904 H         1 <0>         0.0401
     53 H18         2.1981   -3.5608   -9.5417 H         1 <0>         0.0440
     54 H19         1.4672   -5.1439   -9.8699 H         1 <0>         0.0459
     55 H20         5.8782   -3.4157    4.7396 H         1 <0>         0.0456
     56 H21         6.3665   -3.7022    3.0580 H         1 <0>         0.0366
     57 H22         6.7034   -2.1384    3.8257 H         1 <0>         0.0474
     58 H23         5.3842   -0.5386   -0.7426 H         1 <0>         0.0800
     59 H24         6.1956   -2.0004   -1.3135 H         1 <0>         0.0681
     60 H25         4.9119   -1.8947   -3.4517 H         1 <0>         0.0740
     61 H26         4.1396   -0.4017   -2.9334 H         1 <0>         0.0631
     62 H27         6.4083    0.7518   -2.6432 H         1 <0>         0.0970
     63 H28         7.1906   -0.7341   -3.2066 H         1 <0>         0.0725
     64 H29         3.7703   -3.1244   -1.5692 H         1 <0>         0.0839
     65 H30         0.9344   -2.6826   -4.9846 H         1 <0>         0.4531
     66 H31        10.1413    0.6313   -0.0309 H         1 <0>         0.4798
     67 H32        10.9686    1.4783   -1.3002 H         1 <0>         0.4881
     68 H33         8.3832    1.0763   -3.8128 H         1 <0>         0.4801
     69 H34         9.9591    1.7377   -3.4855 H         1 <0>         0.4806
     70 H35         7.9238   -0.3084   -0.4785 H         1 <0>         0.4689
     71 H36         1.9407   -1.3323   -3.1385 H         1 <0>         0.4505
     72 H37         0.5902   -1.1952    2.4913 H         1 <0>         0.4443
@<TRIPOS>BOND
     1    1    2 ar
     2    1    3 ar
     3    2    4 ar
     4    3    6 ar
     5    4    5 ar
     6    4   10 1
     7    5    6 ar
     8    5   24 1
     9    6   35 1
    10    7   15 1
    11    7   30 2
    12    7   34 1
    13    8   23 1
    14    8   25 am
    15    8   31 2
    16    9   26 1
    17    9   27 1
    18    9   28 1
    19   10   16 1
    20   11   13 1
    21   11   17 1
    22   12   15 1
    23   12   17 1
    24   13   25 1
    25   14   16 1
    26   14   24 1
    27   15   25 1
    28   16   18 1
    29   17   19 1
    30   20   21 1
    31   20   22 1
    32   21   23 1
    33   22   28 1
    34   23   29 1
    35   29   35 1
    36   32   35 2
    37   33   35 2
    38    1   36 1
    39    2   37 1
    40    3   38 1
    41   10   39 1
    42   10   40 1
    43   11   41 1
    44   11   42 1
    45   12   43 1
    46   12   44 1
    47   13   45 1
    48   13   46 1
    49   14   47 1
    50   14   48 1
    51   15   49 1
    52   16   50 1
    53   17   51 1
    54   18   52 1
    55   18   53 1
    56   18   54 1
    57   19   55 1
    58   19   56 1
    59   19   57 1
    60   20   58 1
    61   20   59 1
    62   21   60 1
    63   21   61 1
    64   22   62 1
    65   22   63 1
    66   23   64 1
    67   24   65 1
    68   26   66 1
    69   26   67 1
    70   27   68 1
    71   27   69 1
    72   28   70 1
    73   29   71 1
    74   34   72 1
@<TRIPOS>MOLECULE
1dwc_ligand_191
   72    74     0     0     0
SMALL
USER_CHARGES

mmff94s_NoEstat = 79.24
@<TRIPOS>ATOM
      1 C1          0.6009   -5.4402   -0.5450 C.ar      1 <0>        -0.1945
      2 C2          1.9177   -5.1745   -0.9146 C.ar      1 <0>        -0.0294
      3 C3          0.2538   -5.4826    0.8019 C.ar      1 <0>        -0.0143
      4 C4          2.8980   -4.9531    0.0635 C.ar      1 <0>        -0.1552
      5 C5          2.5489   -4.9659    1.4281 C.ar      1 <0>         0.3076
      6 C6          1.2217   -5.2505    1.7807 C.ar      1 <0>        -0.4908
      7 C7          1.9642    1.4662    1.8632 C.2       1 <0>         0.5994
      8 C8          0.8654   -1.4427    3.2413 C.2       1 <0>         0.6462
      9 C9         -3.2174   -1.4380    8.5188 C.cat     1 <0>         0.6305
     10 C10         4.3179   -4.6587   -0.3572 C.3       1 <0>        -0.0319
     11 C11        -1.6490    0.4795    1.3708 C.3       1 <0>        -0.0918
     12 C12        -0.2722    2.0957    2.6970 C.3       1 <0>        -0.0841
     13 C13        -0.4988   -0.5187    1.4084 C.3       1 <0>         0.0870
     14 C14         4.8245   -4.2772    2.0742 C.3       1 <0>         0.2023
     15 C15         0.8473    1.0575    2.8095 C.3       1 <0>         0.0778
     16 C16         5.3306   -4.9077    0.7723 C.3       1 <0>        -0.0746
     17 C17        -1.1290    1.9179    1.4364 C.3       1 <0>        -0.0681
     18 C18         5.6414   -6.3991    0.9431 C.3       1 <0>        -0.0944
     19 C19        -2.2862    2.9148    1.4217 C.3       1 <0>        -0.0918
     20 C20        -1.0866   -2.1427    5.4567 C.3       1 <0>        -0.1192
     21 C21        -1.3133   -2.4479    3.9716 C.3       1 <0>        -0.0916
     22 C22        -2.3970   -1.9935    6.2196 C.3       1 <0>         0.1883
     23 C23        -0.0078   -2.6730    3.2260 C.3       1 <0>         0.1952
     24 N1          3.4999   -4.7575    2.4193 N.pl3     1 <0>        -0.7670
     25 N2          0.3794   -0.3174    2.5658 N.am      1 <0>        -0.4509
     26 N3         -2.9736   -1.1414    9.8558 N.pl3     1 <0>        -0.8477
     27 N4         -4.5309   -1.4955    8.0658 N.pl3     1 <0>        -0.8633
     28 N5         -2.1703   -1.6789    7.6229 N.pl3     1 <0>        -0.7419
     29 N6          0.7961   -3.6905    3.9267 N.pl3     1 <0>        -0.8860
     30 O1          2.5300    2.5492    1.8716 O.2       1 <0>        -0.5199
     31 O2          1.9492   -1.4826    3.8301 O.2       1 <0>        -0.6131
     32 O3         -0.6876   -5.7475    3.4786 O.2       1 <0>        -0.6576
     33 O4          1.7036   -6.0834    4.1813 O.2       1 <0>        -0.6482
     34 O5          2.2506    0.4621    0.9988 O.3       1 <0>        -0.6303
     35 S1          0.6998   -5.3249    3.4597 S.o2      1 <0>         1.5193
     36 H1         -0.1532   -5.6173   -1.3071 H         1 <0>         0.1426
     37 H2          2.1805   -5.1462   -1.9695 H         1 <0>         0.1398
     38 H3         -0.7676   -5.6946    1.1020 H         1 <0>         0.1599
     39 H4          4.5872   -5.2635   -1.2316 H         1 <0>         0.0574
     40 H5          4.3648   -3.6041   -0.6574 H         1 <0>         0.0629
     41 H6         -2.2327    0.3316    0.4545 H         1 <0>         0.0614
     42 H7         -2.3231    0.2907    2.2162 H         1 <0>         0.0593
     43 H8         -0.9212    2.0009    3.5784 H         1 <0>         0.0841
     44 H9          0.1416    3.1118    2.7215 H         1 <0>         0.0679
     45 H10        -0.9021   -1.5366    1.4052 H         1 <0>         0.0826
     46 H11         0.1232   -0.4178    0.5108 H         1 <0>         0.0383
     47 H12         5.5138   -4.4958    2.8973 H         1 <0>         0.0556
     48 H13         4.7892   -3.1861    1.9666 H         1 <0>         0.0415
     49 H14         1.2785    1.1236    3.8134 H         1 <0>         0.0851
     50 H15         6.2762   -4.4249    0.4964 H         1 <0>         0.0639
     51 H16        -0.5120    2.1147    0.5510 H         1 <0>         0.0584
     52 H17         4.9808   -7.0038    0.3146 H         1 <0>         0.0401
     53 H18         6.6765   -6.6112    0.6589 H         1 <0>         0.0440
     54 H19         5.5005   -6.7043    1.9843 H         1 <0>         0.0459
     55 H20        -2.0602    3.7755    2.0582 H         1 <0>         0.0456
     56 H21        -2.4693    3.2764    0.4054 H         1 <0>         0.0366
     57 H22        -3.2029    2.4449    1.7906 H         1 <0>         0.0474
     58 H23        -0.4913   -2.9455    5.9081 H         1 <0>         0.0800
     59 H24        -0.5143   -1.2136    5.5600 H         1 <0>         0.0681
     60 H25        -1.8840   -1.6286    3.5148 H         1 <0>         0.0740
     61 H26        -1.9315   -3.3495    3.8758 H         1 <0>         0.0631
     62 H27        -2.9930   -2.9100    6.1652 H         1 <0>         0.0970
     63 H28        -2.9889   -1.1790    5.7901 H         1 <0>         0.0725
     64 H29        -0.1638   -2.9774    2.1921 H         1 <0>         0.0839
     65 H30         3.1862   -4.7016    3.3805 H         1 <0>         0.4531
     66 H31        -2.0306   -1.0905   10.2318 H         1 <0>         0.4798
     67 H32        -3.7410   -0.9681   10.5009 H         1 <0>         0.4881
     68 H33        -4.7448   -1.7097    7.0948 H         1 <0>         0.4801
     69 H34        -5.3125   -1.3238    8.6938 H         1 <0>         0.4806
     70 H35        -1.2168   -1.6295    7.9850 H         1 <0>         0.4689
     71 H36         1.6533   -3.3509    4.3757 H         1 <0>         0.4505
     72 H37         2.9690    0.7074    0.3774 H         1 <0>         0.4443
@<TRIPOS>BOND
     1    1    2 ar
     2    1    3 ar
     3    2    4 ar
     4    3    6 ar
     5    4    5 ar
     6    4   10 1
     7    5    6 ar
     8    5   24 1
     9    6   35 1
    10    7   15 1
    11    7   30 2
    12    7   34 1
    13    8   23 1
    14    8   25 am
    15    8   31 2
    16    9   26 1
    17    9   27 1
    18    9   28 1
    19   10   16 1
    20   11   13 1
    21   11   17 1
    22   12   15 1
    23   12   17 1
    24   13   25 1
    25   14   16 1
    26   14   24 1
    27   15   25 1
    28   16   18 1
    29   17   19 1
    30   20   21 1
    31   20   22 1
    32   21   23 1
    33   22   28 1
    34   23   29 1
    35   29   35 1
    36   32   35 2
    37   33   35 2
    38    1   36 1
    39    2   37 1
    40    3   38 1
    41   10   39 1
    42   10   40 1
    43   11   41 1
    44   11   42 1
    45   12   43 1
    46   12   44 1
    47   13   45 1
    48   13   46 1
    49   14   47 1
    50   14   48 1
    51   15   49 1
    52   16   50 1
    53   17   51 1
    54   18   52 1
    55   18   53 1
    56   18   54 1
    57   19   55 1
    58   19   56 1
    59   19   57 1
    60   20   58 1
    61   20   59 1
    62   21   60 1
    63   21   61 1
    64   22   62 1
    65   22   63 1
    66   23   64 1
    67   24   65 1
    68   26   66 1
    69   26   67 1
    70   27   68 1
    71   27   69 1
    72   28   70 1
    73   29   71 1
    74   34   72 1
@<TRIPOS>MOLECULE
1dwc_ligand_192
   72    74     0     0     0
SMALL
USER_CHARGES

mmff94s_NoEstat = 79.29
@<TRIPOS>ATOM
      1 C1          0.6093   -6.2514   -1.1331 C.ar      1 <0>        -0.1945
      2 C2          1.7391   -6.9534   -0.7183 C.ar      1 <0>        -0.0294
      3 C3          0.7343   -5.2205   -2.0596 C.ar      1 <0>        -0.0143
      4 C4          3.0029   -6.6298   -1.2325 C.ar      1 <0>        -0.1552
      5 C5          3.1419   -5.5684   -2.1489 C.ar      1 <0>         0.3076
      6 C6          1.9909   -4.8841   -2.5656 C.ar      1 <0>        -0.4908
      7 C7          1.8102   -1.5505    2.3702 C.2       1 <0>         0.5994
      8 C8          2.9466   -1.3973   -0.6457 C.2       1 <0>         0.6462
      9 C9          6.5364    0.5009   -5.9324 C.cat     1 <0>         0.6305
     10 C10         4.2174   -7.3963   -0.7662 C.3       1 <0>        -0.0319
     11 C11         4.4920   -3.4807    2.0801 C.3       1 <0>        -0.0918
     12 C12         4.1798   -1.0721    2.8769 C.3       1 <0>        -0.0841
     13 C13         4.5658   -2.7774    0.7291 C.3       1 <0>         0.0870
     14 C14         5.5937   -5.7970   -2.1205 C.3       1 <0>         0.2023
     15 C15         3.1125   -1.0286    1.7861 C.3       1 <0>         0.0778
     16 C16         5.3776   -7.2719   -1.7663 C.3       1 <0>        -0.0746
     17 C17         4.5869   -2.5050    3.2643 C.3       1 <0>        -0.0681
     18 C18         6.6521   -7.8917   -1.1998 C.3       1 <0>        -0.0944
     19 C19         5.9882   -2.5079    3.8779 C.3       1 <0>        -0.0918
     20 C20         4.0666    0.0061   -3.0917 C.3       1 <0>        -0.1192
     21 C21         4.5564   -1.3488   -2.5679 C.3       1 <0>        -0.0916
     22 C22         5.1498    0.7503   -3.8628 C.3       1 <0>         0.1883
     23 C23         3.4544   -2.1251   -1.8653 C.3       1 <0>         0.1952
     24 N1          4.3811   -5.2258   -2.6756 N.pl3     1 <0>        -0.7670
     25 N2          3.5192   -1.7560    0.5781 N.am      1 <0>        -0.4509
     26 N3          6.9409   -0.2356   -7.0409 N.pl3     1 <0>        -0.8477
     27 N4          7.0867    1.7598   -5.7173 N.pl3     1 <0>        -0.8633
     28 N5          5.5893    0.0019   -5.0317 N.pl3     1 <0>        -0.7419
     29 N6          2.2741   -2.2179   -2.7432 N.pl3     1 <0>        -0.8860
     30 O1          1.2492   -1.0925    3.3546 O.2       1 <0>        -0.5199
     31 O2          2.0685   -0.5400   -0.7710 O.2       1 <0>        -0.6131
     32 O3          3.2466   -3.7694   -4.5546 O.2       1 <0>        -0.6576
     33 O4          0.7526   -3.5048   -4.3692 O.2       1 <0>        -0.6482
     34 O5          1.3501   -2.6026    1.6500 O.3       1 <0>        -0.6303
     35 S1          2.0591   -3.5786   -3.7438 S.o2      1 <0>         1.5193
     36 H1         -0.3683   -6.5110   -0.7364 H         1 <0>         0.1426
     37 H2          1.6316   -7.7594    0.0037 H         1 <0>         0.1398
     38 H3         -0.1396   -4.6708   -2.3946 H         1 <0>         0.1599
     39 H4          4.5163   -7.0048    0.2145 H         1 <0>         0.0574
     40 H5          3.9649   -8.4563   -0.6405 H         1 <0>         0.0629
     41 H6          3.5311   -4.0088    2.1410 H         1 <0>         0.0614
     42 H7          5.2694   -4.2509    2.1463 H         1 <0>         0.0593
     43 H8          5.0641   -0.5305    2.5137 H         1 <0>         0.0841
     44 H9          3.8399   -0.5392    3.7741 H         1 <0>         0.0679
     45 H10         5.5312   -2.2723    0.6079 H         1 <0>         0.0826
     46 H11         4.4795   -3.5150   -0.0747 H         1 <0>         0.0383
     47 H12         5.8905   -5.2266   -1.2316 H         1 <0>         0.0556
     48 H13         6.4019   -5.6981   -2.8538 H         1 <0>         0.0415
     49 H14         2.9188    0.0160    1.5141 H         1 <0>         0.0851
     50 H15         5.1141   -7.8187   -2.6818 H         1 <0>         0.0639
     51 H16         3.9047   -2.8651    4.0450 H         1 <0>         0.0584
     52 H17         7.3989   -8.0232   -1.9884 H         1 <0>         0.0401
     53 H18         7.0798   -7.2498   -0.4238 H         1 <0>         0.0440
     54 H19         6.4404   -8.8706   -0.7592 H         1 <0>         0.0459
     55 H20         6.0310   -3.1862    4.7353 H         1 <0>         0.0456
     56 H21         6.7293   -2.8350    3.1425 H         1 <0>         0.0366
     57 H22         6.2606   -1.5045    4.2187 H         1 <0>         0.0474
     58 H23         3.1961   -0.1462   -3.7411 H         1 <0>         0.0800
     59 H24         3.7428    0.6319   -2.2522 H         1 <0>         0.0681
     60 H25         5.4094   -1.1917   -1.8946 H         1 <0>         0.0740
     61 H26         4.9285   -1.9502   -3.4070 H         1 <0>         0.0631
     62 H27         6.0226    0.9442   -3.2312 H         1 <0>         0.0970
     63 H28         4.7647    1.7133   -4.2128 H         1 <0>         0.0725
     64 H29         3.7703   -3.1244   -1.5692 H         1 <0>         0.0839
     65 H30         4.4419   -4.4093   -3.2714 H         1 <0>         0.4531
     66 H31         6.5676   -1.1605   -7.2371 H         1 <0>         0.4798
     67 H32         7.6308    0.1346   -7.6906 H         1 <0>         0.4881
     68 H33         6.8135    2.3249   -4.9169 H         1 <0>         0.4801
     69 H34         7.7763    2.1491   -6.3557 H         1 <0>         0.4806
     70 H35         5.2033   -0.9252   -5.2162 H         1 <0>         0.4689
     71 H36         1.4502   -1.6870   -2.4414 H         1 <0>         0.4505
     72 H37         0.5099   -2.9556    2.0129 H         1 <0>         0.4443
@<TRIPOS>BOND
     1    1    2 ar
     2    1    3 ar
     3    2    4 ar
     4    3    6 ar
     5    4    5 ar
     6    4   10 1
     7    5    6 ar
     8    5   24 1
     9    6   35 1
    10    7   15 1
    11    7   30 2
    12    7   34 1
    13    8   23 1
    14    8   25 am
    15    8   31 2
    16    9   26 1
    17    9   27 1
    18    9   28 1
    19   10   16 1
    20   11   13 1
    21   11   17 1
    22   12   15 1
    23   12   17 1
    24   13   25 1
    25   14   16 1
    26   14   24 1
    27   15   25 1
    28   16   18 1
    29   17   19 1
    30   20   21 1
    31   20   22 1
    32   21   23 1
    33   22   28 1
    34   23   29 1
    35   29   35 1
    36   32   35 2
    37   33   35 2
    38    1   36 1
    39    2   37 1
    40    3   38 1
    41   10   39 1
    42   10   40 1
    43   11   41 1
    44   11   42 1
    45   12   43 1
    46   12   44 1
    47   13   45 1
    48   13   46 1
    49   14   47 1
    50   14   48 1
    51   15   49 1
    52   16   50 1
    53   17   51 1
    54   18   52 1
    55   18   53 1
    56   18   54 1
    57   19   55 1
    58   19   56 1
    59   19   57 1
    60   20   58 1
    61   20   59 1
    62   21   60 1
    63   21   61 1
    64   22   62 1
    65   22   63 1
    66   23   64 1
    67   24   65 1
    68   26   66 1
    69   26   67 1
    70   27   68 1
    71   27   69 1
    72   28   70 1
    73   29   71 1
    74   34   72 1
@<TRIPOS>MOLECULE
1dwc_ligand_193
   72    74     0     0     0
SMALL
USER_CHARGES

mmff94s_NoEstat = 79.33
@<TRIPOS>ATOM
      1 C1         -2.9821   -5.2402    6.1755 C.ar      1 <0>        -0.1945
      2 C2         -4.2536   -5.5662    5.7083 C.ar      1 <0>        -0.0294
      3 C3         -2.3862   -4.0437    5.7881 C.ar      1 <0>        -0.0143
      4 C4         -4.9394   -4.6928    4.8521 C.ar      1 <0>        -0.1552
      5 C5         -4.3313   -3.4931    4.4321 C.ar      1 <0>         0.3076
      6 C6         -3.0575   -3.1757    4.9254 C.ar      1 <0>        -0.4908
      7 C7          2.9762   -3.0374    5.3790 C.2       1 <0>         0.5994
      8 C8          0.8654   -1.4427    3.2413 C.2       1 <0>         0.6462
      9 C9         -0.8941   -7.9715   -0.0876 C.cat     1 <0>         0.6305
     10 C10        -6.3137   -5.0656    4.3497 C.3       1 <0>        -0.0319
     11 C11         2.4006    0.6688    5.8299 C.3       1 <0>        -0.0918
     12 C12         1.7620   -1.5078    6.8886 C.3       1 <0>        -0.0841
     13 C13         2.4565   -0.0177    4.4711 C.3       1 <0>         0.0870
     14 C14        -6.2170   -3.0044    2.9255 C.3       1 <0>         0.2023
     15 C15         1.7319   -2.1748    5.5110 C.3       1 <0>         0.0778
     16 C16        -7.0924   -3.8286    3.8752 C.3       1 <0>        -0.0746
     17 C17         2.7265   -0.3161    6.9557 C.3       1 <0>        -0.0681
     18 C18        -8.3998   -4.2353    3.2009 C.3       1 <0>        -0.0944
     19 C19         2.6468    0.3706    8.3178 C.3       1 <0>        -0.0918
     20 C20        -0.5404   -4.8511    2.0458 C.3       1 <0>        -0.1192
     21 C21         0.3004   -3.5693    2.0376 C.3       1 <0>        -0.0916
     22 C22        -0.1768   -5.7847    0.8978 C.3       1 <0>         0.1883
     23 C23        -0.0078   -2.6730    3.2260 C.3       1 <0>         0.1952
     24 N1         -4.9870   -2.6082    3.5850 N.pl3     1 <0>        -0.7670
     25 N2          1.5999   -1.2067    4.4091 N.am      1 <0>        -0.4509
     26 N3         -1.6898   -9.1122   -0.0609 N.pl3     1 <0>        -0.8477
     27 N4          0.0239   -7.8094   -1.1196 N.pl3     1 <0>        -0.8633
     28 N5         -0.9984   -6.9865    0.9003 N.pl3     1 <0>        -0.7419
     29 N6         -1.3760   -2.1385    3.1042 N.pl3     1 <0>        -0.8860
     30 O1          4.0250   -2.6820    4.8621 O.2       1 <0>        -0.5199
     31 O2          0.8891   -0.7105    2.2483 O.2       1 <0>        -0.6131
     32 O3         -3.2514   -0.7039    4.1330 O.2       1 <0>        -0.6576
     33 O4         -1.2997   -1.3890    5.5632 O.2       1 <0>        -0.6482
     34 O5          2.7663   -4.2654    5.9130 O.3       1 <0>        -0.6303
     35 S1         -2.2397   -1.6774    4.4970 S.o2      1 <0>         1.5193
     36 H1         -2.4581   -5.9177    6.8441 H         1 <0>         0.1426
     37 H2         -4.7127   -6.5018    6.0186 H         1 <0>         0.1398
     38 H3         -1.3986   -3.7764    6.1505 H         1 <0>         0.1599
     39 H4         -6.1970   -5.7813    3.5259 H         1 <0>         0.0574
     40 H5         -6.8810   -5.5622    5.1465 H         1 <0>         0.0629
     41 H6          3.1075    1.5068    5.8464 H         1 <0>         0.0614
     42 H7          1.3987    1.0896    5.9845 H         1 <0>         0.0593
     43 H8          0.7490   -1.1528    7.1229 H         1 <0>         0.0841
     44 H9          2.0241   -2.2386    7.6642 H         1 <0>         0.0679
     45 H10         2.1762    0.6981    3.6915 H         1 <0>         0.0826
     46 H11         3.4796   -0.3461    4.2516 H         1 <0>         0.0383
     47 H12        -5.9766   -3.5818    2.0242 H         1 <0>         0.0556
     48 H13        -6.7526   -2.1053    2.6011 H         1 <0>         0.0415
     49 H14         0.8899   -2.8738    5.4853 H         1 <0>         0.0851
     50 H15        -7.3408   -3.2116    4.7494 H         1 <0>         0.0639
     51 H16         3.7543   -0.6771    6.8272 H         1 <0>         0.0584
     52 H17        -9.0584   -3.3693    3.0856 H         1 <0>         0.0401
     53 H18        -8.2066   -4.6557    2.2094 H         1 <0>         0.0440
     54 H19        -8.9224   -4.9882    3.7985 H         1 <0>         0.0459
     55 H20         1.9573   -0.1639    8.9779 H         1 <0>         0.0456
     56 H21         3.6313    0.3946    8.7945 H         1 <0>         0.0366
     57 H22         2.2914    1.3997    8.2091 H         1 <0>         0.0474
     58 H23        -0.4002   -5.3741    2.9994 H         1 <0>         0.0800
     59 H24        -1.6035   -4.5964    1.9658 H         1 <0>         0.0681
     60 H25         0.1357   -3.0322    1.0943 H         1 <0>         0.0740
     61 H26         1.3654   -3.8328    2.0643 H         1 <0>         0.0631
     62 H27         0.8739   -6.0869    0.9513 H         1 <0>         0.0970
     63 H28        -0.3350   -5.2785   -0.0598 H         1 <0>         0.0725
     64 H29         0.1003   -3.1895    4.1787 H         1 <0>         0.0839
     65 H30        -4.4812   -1.7970    3.2511 H         1 <0>         0.4531
     66 H31        -2.3726   -9.2741    0.6745 H         1 <0>         0.4798
     67 H32        -1.6070   -9.8240   -0.7830 H         1 <0>         0.4881
     68 H33         0.6213   -6.9877   -1.1696 H         1 <0>         0.4801
     69 H34         0.1212   -8.5082   -1.8524 H         1 <0>         0.4806
     70 H35        -1.6814   -7.1337    1.6450 H         1 <0>         0.4689
     71 H36        -1.6042   -1.6955    2.2078 H         1 <0>         0.4505
     72 H37         3.5585   -4.8388    5.8359 H         1 <0>         0.4443
@<TRIPOS>BOND
     1    1    2 ar
     2    1    3 ar
     3    2    4 ar
     4    3    6 ar
     5    4    5 ar
     6    4   10 1
     7    5    6 ar
     8    5   24 1
     9    6   35 1
    10    7   15 1
    11    7   30 2
    12    7   34 1
    13    8   23 1
    14    8   25 am
    15    8   31 2
    16    9   26 1
    17    9   27 1
    18    9   28 1
    19   10   16 1
    20   11   13 1
    21   11   17 1
    22   12   15 1
    23   12   17 1
    24   13   25 1
    25   14   16 1
    26   14   24 1
    27   15   25 1
    28   16   18 1
    29   17   19 1
    30   20   21 1
    31   20   22 1
    32   21   23 1
    33   22   28 1
    34   23   29 1
    35   29   35 1
    36   32   35 2
    37   33   35 2
    38    1   36 1
    39    2   37 1
    40    3   38 1
    41   10   39 1
    42   10   40 1
    43   11   41 1
    44   11   42 1
    45   12   43 1
    46   12   44 1
    47   13   45 1
    48   13   46 1
    49   14   47 1
    50   14   48 1
    51   15   49 1
    52   16   50 1
    53   17   51 1
    54   18   52 1
    55   18   53 1
    56   18   54 1
    57   19   55 1
    58   19   56 1
    59   19   57 1
    60   20   58 1
    61   20   59 1
    62   21   60 1
    63   21   61 1
    64   22   62 1
    65   22   63 1
    66   23   64 1
    67   24   65 1
    68   26   66 1
    69   26   67 1
    70   27   68 1
    71   27   69 1
    72   28   70 1
    73   29   71 1
    74   34   72 1
@<TRIPOS>MOLECULE
1dwc_ligand_194
   72    74     0     0     0
SMALL
USER_CHARGES

mmff94s_NoEstat = 79.35
@<TRIPOS>ATOM
      1 C1          6.0522   -1.6093   -5.7685 C.ar      1 <0>        -0.1945
      2 C2          6.9879   -0.6478   -5.3928 C.ar      1 <0>        -0.0294
      3 C3          5.6329   -2.5655   -4.8485 C.ar      1 <0>        -0.0143
      4 C4          7.5136   -0.6397   -4.0927 C.ar      1 <0>        -0.1552
      5 C5          7.0729   -1.5864   -3.1473 C.ar      1 <0>         0.3076
      6 C6          6.1423   -2.5557   -3.5489 C.ar      1 <0>        -0.4908
      7 C7          3.6135    0.1593    2.1008 C.2       1 <0>         0.5994
      8 C8          2.9466   -1.3973   -0.6457 C.2       1 <0>         0.6462
      9 C9         -2.2980   -3.2816   -4.1919 C.cat     1 <0>         0.6305
     10 C10         8.5206    0.4154   -3.7021 C.3       1 <0>        -0.0319
     11 C11         5.5437    1.3083   -0.3397 C.3       1 <0>        -0.0918
     12 C12         3.3133    2.1108    0.6168 C.3       1 <0>        -0.0841
     13 C13         4.6073    0.4410   -1.1741 C.3       1 <0>         0.0870
     14 C14         8.3929   -0.5076   -1.3686 C.3       1 <0>         0.2023
     15 C15         3.0358    0.6175    0.7719 C.3       1 <0>         0.0778
     16 C16         9.3324    0.0228   -2.4570 C.3       1 <0>        -0.0746
     17 C17         4.8054    2.4280    0.4117 C.3       1 <0>        -0.0681
     18 C18        10.4430   -0.9795   -2.7911 C.3       1 <0>        -0.0944
     19 C19         4.9662    3.7744   -0.2964 C.3       1 <0>        -0.0918
     20 C20         1.1084   -2.3549   -2.7950 C.3       1 <0>        -0.1192
     21 C21         2.4114   -3.0756   -2.4306 C.3       1 <0>        -0.0916
     22 C22         0.0368   -3.3189   -3.2890 C.3       1 <0>         0.1883
     23 C23         3.4544   -2.1251   -1.8653 C.3       1 <0>         0.1952
     24 N1          7.5814   -1.6075   -1.8546 N.pl3     1 <0>        -0.7670
     25 N2          3.5421   -0.1648   -0.3619 N.am      1 <0>        -0.4509
     26 N3         -3.4568   -2.5916   -4.5325 N.pl3     1 <0>        -0.8477
     27 N4         -2.2453   -4.6572   -4.3892 N.pl3     1 <0>        -0.8633
     28 N5         -1.1871   -2.6212   -3.6562 N.pl3     1 <0>        -0.7419
     29 N6          4.6097   -2.8934   -1.3678 N.pl3     1 <0>        -0.8860
     30 O1          3.3259    0.6306    3.1909 O.2       1 <0>        -0.5199
     31 O2          2.0528   -1.9046    0.0367 O.2       1 <0>        -0.6131
     32 O3          4.7065   -4.6990   -3.2019 O.2       1 <0>        -0.6576
     33 O4          6.7193   -4.3156   -1.7438 O.2       1 <0>        -0.6482
     34 O5          4.5002   -0.8490    1.9151 O.3       1 <0>        -0.6303
     35 S1          5.5613   -3.8008   -2.4493 S.o2      1 <0>         1.5193
     36 H1          5.6529   -1.6146   -6.7791 H         1 <0>         0.1426
     37 H2          7.3120    0.0938   -6.1190 H         1 <0>         0.1398
     38 H3          4.9089   -3.3231   -5.1316 H         1 <0>         0.1599
     39 H4          9.2030    0.6155   -4.5372 H         1 <0>         0.0574
     40 H5          7.9697    1.3420   -3.4960 H         1 <0>         0.0629
     41 H6          6.0425    0.6652    0.3976 H         1 <0>         0.0614
     42 H7          6.3377    1.7214   -0.9727 H         1 <0>         0.0593
     43 H8          2.7432    2.4779   -0.2478 H         1 <0>         0.0841
     44 H9          2.9432    2.6669    1.4876 H         1 <0>         0.0679
     45 H10         4.1201    1.0372   -1.9545 H         1 <0>         0.0826
     46 H11         5.1818   -0.3450   -1.6740 H         1 <0>         0.0383
     47 H12         8.9677   -0.8403   -0.4971 H         1 <0>         0.0556
     48 H13         7.7309    0.2979   -1.0276 H         1 <0>         0.0415
     49 H14         1.9534    0.4590    0.8478 H         1 <0>         0.0851
     50 H15         9.8323    0.9224   -2.0771 H         1 <0>         0.0639
     51 H16         5.2803    2.5350    1.3953 H         1 <0>         0.0584
     52 H17        10.3551   -1.3193   -3.8274 H         1 <0>         0.0401
     53 H18        11.4274   -0.5200   -2.6615 H         1 <0>         0.0440
     54 H19        10.3818   -1.8536   -2.1358 H         1 <0>         0.0459
     55 H20         5.9624    4.1882   -0.1137 H         1 <0>         0.0456
     56 H21         4.8337    3.6592   -1.3763 H         1 <0>         0.0366
     57 H22         4.2237    4.4910    0.0673 H         1 <0>         0.0474
     58 H23         0.7341   -1.8112   -1.9193 H         1 <0>         0.0800
     59 H24         1.3022   -1.6154   -3.5806 H         1 <0>         0.0681
     60 H25         2.8001   -3.5947   -3.3165 H         1 <0>         0.0740
     61 H26         2.2014   -3.8505   -1.6824 H         1 <0>         0.0631
     62 H27        -0.2083   -4.0632   -2.5248 H         1 <0>         0.0970
     63 H28         0.3931   -3.8504   -4.1772 H         1 <0>         0.0725
     64 H29         3.7902   -1.3903   -2.5956 H         1 <0>         0.0839
     65 H30         7.1785   -2.2582   -1.1914 H         1 <0>         0.4531
     66 H31        -3.5414   -1.5868   -4.4042 H         1 <0>         0.4798
     67 H32        -4.2604   -3.0798   -4.9210 H         1 <0>         0.4881
     68 H33        -1.4139   -5.1926   -4.1511 H         1 <0>         0.4801
     69 H34        -3.0369   -5.1641   -4.7779 H         1 <0>         0.4806
     70 H35        -1.2558   -1.6112   -3.5231 H         1 <0>         0.4689
     71 H36         5.0337   -2.5501   -0.4993 H         1 <0>         0.4505
     72 H37         4.8863   -1.1580    2.7624 H         1 <0>         0.4443
@<TRIPOS>BOND
     1    1    2 ar
     2    1    3 ar
     3    2    4 ar
     4    3    6 ar
     5    4    5 ar
     6    4   10 1
     7    5    6 ar
     8    5   24 1
     9    6   35 1
    10    7   15 1
    11    7   30 2
    12    7   34 1
    13    8   23 1
    14    8   25 am
    15    8   31 2
    16    9   26 1
    17    9   27 1
    18    9   28 1
    19   10   16 1
    20   11   13 1
    21   11   17 1
    22   12   15 1
    23   12   17 1
    24   13   25 1
    25   14   16 1
    26   14   24 1
    27   15   25 1
    28   16   18 1
    29   17   19 1
    30   20   21 1
    31   20   22 1
    32   21   23 1
    33   22   28 1
    34   23   29 1
    35   29   35 1
    36   32   35 2
    37   33   35 2
    38    1   36 1
    39    2   37 1
    40    3   38 1
    41   10   39 1
    42   10   40 1
    43   11   41 1
    44   11   42 1
    45   12   43 1
    46   12   44 1
    47   13   45 1
    48   13   46 1
    49   14   47 1
    50   14   48 1
    51   15   49 1
    52   16   50 1
    53   17   51 1
    54   18   52 1
    55   18   53 1
    56   18   54 1
    57   19   55 1
    58   19   56 1
    59   19   57 1
    60   20   58 1
    61   20   59 1
    62   21   60 1
    63   21   61 1
    64   22   62 1
    65   22   63 1
    66   23   64 1
    67   24   65 1
    68   26   66 1
    69   26   67 1
    70   27   68 1
    71   27   69 1
    72   28   70 1
    73   29   71 1
    74   34   72 1
@<TRIPOS>MOLECULE
1dwc_ligand_195
   72    74     0     0     0
SMALL
USER_CHARGES

mmff94s_NoEstat = 79.35
@<TRIPOS>ATOM
      1 C1         -3.5298   -6.2535    4.3510 C.ar      1 <0>        -0.1945
      2 C2         -4.3901   -6.3642    3.2606 C.ar      1 <0>        -0.0294
      3 C3         -2.9628   -5.0220    4.6653 C.ar      1 <0>        -0.0143
      4 C4         -4.6918   -5.2398    2.4790 C.ar      1 <0>        -0.1552
      5 C5         -4.0992   -3.9956    2.7730 C.ar      1 <0>         0.3076
      6 C6         -3.2482   -3.9013    3.8837 C.ar      1 <0>        -0.4908
      7 C7          0.7599    0.4439    6.0693 C.2       1 <0>         0.5994
      8 C8          0.8654   -1.4427    3.2413 C.2       1 <0>         0.6462
      9 C9         -0.8941   -7.9715   -0.0876 C.cat     1 <0>         0.6305
     10 C10        -5.6204   -5.3796    1.2965 C.3       1 <0>        -0.0319
     11 C11         3.4513   -2.1874    5.7463 C.3       1 <0>        -0.0918
     12 C12         3.1844    0.2989    5.6288 C.3       1 <0>        -0.0841
     13 C13         2.0362   -2.3566    5.2082 C.3       1 <0>         0.0870
     14 C14        -5.1062   -2.9837    0.7664 C.3       1 <0>         0.2023
     15 C15         1.7971    0.1255    5.0050 C.3       1 <0>         0.0778
     16 C16        -6.2232   -4.0248    0.8929 C.3       1 <0>        -0.0746
     17 C17         3.5879   -0.8778    6.5274 C.3       1 <0>        -0.0681
     18 C18        -7.0091   -4.1462   -0.4097 C.3       1 <0>        -0.0944
     19 C19         5.0139   -0.7010    7.0456 C.3       1 <0>        -0.0918
     20 C20        -0.5404   -4.8511    2.0458 C.3       1 <0>        -0.1192
     21 C21         0.3004   -3.5693    2.0376 C.3       1 <0>        -0.0916
     22 C22        -0.1768   -5.7847    0.8978 C.3       1 <0>         0.1883
     23 C23        -0.0078   -2.6730    3.2260 C.3       1 <0>         0.1952
     24 N1         -4.3801   -2.8644    2.0167 N.pl3     1 <0>        -0.7670
     25 N2          1.5999   -1.2067    4.4091 N.am      1 <0>        -0.4509
     26 N3         -1.6898   -9.1122   -0.0609 N.pl3     1 <0>        -0.8477
     27 N4          0.0239   -7.8094   -1.1196 N.pl3     1 <0>        -0.8633
     28 N5         -0.9984   -6.9865    0.9003 N.pl3     1 <0>        -0.7419
     29 N6         -1.3760   -2.1385    3.1042 N.pl3     1 <0>        -0.8860
     30 O1          0.2188   -0.3807    6.7908 O.2       1 <0>        -0.5199
     31 O2          0.8891   -0.7105    2.2483 O.2       1 <0>        -0.6131
     32 O3         -3.5166   -1.3454    4.2968 O.2       1 <0>        -0.6576
     33 O4         -1.7865   -2.6277    5.5955 O.2       1 <0>        -0.6482
     34 O5          0.5101    1.7754    6.1111 O.3       1 <0>        -0.6303
     35 S1         -2.5018   -2.3799    4.3583 S.o2      1 <0>         1.5193
     36 H1         -3.3049   -7.1268    4.9571 H         1 <0>         0.1426
     37 H2         -4.8309   -7.3297    3.0242 H         1 <0>         0.1398
     38 H3         -2.2961   -4.9225    5.5159 H         1 <0>         0.1599
     39 H4         -5.0522   -5.8078    0.4610 H         1 <0>         0.0574
     40 H5         -6.4331   -6.0751    1.5397 H         1 <0>         0.0629
     41 H6          3.7023   -3.0381    6.3909 H         1 <0>         0.0614
     42 H7          4.1624   -2.1957    4.9103 H         1 <0>         0.0593
     43 H8          3.9195    0.3885    4.8172 H         1 <0>         0.0841
     44 H9          3.2348    1.2341    6.2008 H         1 <0>         0.0679
     45 H10         1.9804   -3.2772    4.6181 H         1 <0>         0.0826
     46 H11         1.3238   -2.4627    6.0353 H         1 <0>         0.0383
     47 H12        -4.4091   -3.2616   -0.0338 H         1 <0>         0.0556
     48 H13        -5.5272   -2.0065    0.5046 H         1 <0>         0.0415
     49 H14         1.6678    0.8925    4.2348 H         1 <0>         0.0851
     50 H15        -6.9191   -3.7005    1.6784 H         1 <0>         0.0639
     51 H16         2.9216   -0.9109    7.3982 H         1 <0>         0.0584
     52 H17        -7.6317   -3.2604   -0.5670 H         1 <0>         0.0401
     53 H18        -6.3292   -4.2450   -1.2612 H         1 <0>         0.0440
     54 H19        -7.6604   -5.0250   -0.3851 H         1 <0>         0.0459
     55 H20         5.4291    0.2540    6.7098 H         1 <0>         0.0456
     56 H21         5.0304   -0.7183    8.1394 H         1 <0>         0.0366
     57 H22         5.6586   -1.5050    6.6784 H         1 <0>         0.0474
     58 H23        -0.4002   -5.3741    2.9994 H         1 <0>         0.0800
     59 H24        -1.6035   -4.5964    1.9658 H         1 <0>         0.0681
     60 H25         0.1357   -3.0322    1.0943 H         1 <0>         0.0740
     61 H26         1.3654   -3.8328    2.0643 H         1 <0>         0.0631
     62 H27         0.8739   -6.0869    0.9513 H         1 <0>         0.0970
     63 H28        -0.3350   -5.2785   -0.0598 H         1 <0>         0.0725
     64 H29         0.1003   -3.1895    4.1787 H         1 <0>         0.0839
     65 H30        -3.8731   -2.0116    2.2195 H         1 <0>         0.4531
     66 H31        -2.3726   -9.2741    0.6745 H         1 <0>         0.4798
     67 H32        -1.6070   -9.8240   -0.7830 H         1 <0>         0.4881
     68 H33         0.6213   -6.9877   -1.1696 H         1 <0>         0.4801
     69 H34         0.1212   -8.5082   -1.8524 H         1 <0>         0.4806
     70 H35        -1.6814   -7.1337    1.6450 H         1 <0>         0.4689
     71 H36        -1.4850   -1.3266    2.4871 H         1 <0>         0.4505
     72 H37        -0.1593    2.0014    6.7917 H         1 <0>         0.4443
@<TRIPOS>BOND
     1    1    2 ar
     2    1    3 ar
     3    2    4 ar
     4    3    6 ar
     5    4    5 ar
     6    4   10 1
     7    5    6 ar
     8    5   24 1
     9    6   35 1
    10    7   15 1
    11    7   30 2
    12    7   34 1
    13    8   23 1
    14    8   25 am
    15    8   31 2
    16    9   26 1
    17    9   27 1
    18    9   28 1
    19   10   16 1
    20   11   13 1
    21   11   17 1
    22   12   15 1
    23   12   17 1
    24   13   25 1
    25   14   16 1
    26   14   24 1
    27   15   25 1
    28   16   18 1
    29   17   19 1
    30   20   21 1
    31   20   22 1
    32   21   23 1
    33   22   28 1
    34   23   29 1
    35   29   35 1
    36   32   35 2
    37   33   35 2
    38    1   36 1
    39    2   37 1
    40    3   38 1
    41   10   39 1
    42   10   40 1
    43   11   41 1
    44   11   42 1
    45   12   43 1
    46   12   44 1
    47   13   45 1
    48   13   46 1
    49   14   47 1
    50   14   48 1
    51   15   49 1
    52   16   50 1
    53   17   51 1
    54   18   52 1
    55   18   53 1
    56   18   54 1
    57   19   55 1
    58   19   56 1
    59   19   57 1
    60   20   58 1
    61   20   59 1
    62   21   60 1
    63   21   61 1
    64   22   62 1
    65   22   63 1
    66   23   64 1
    67   24   65 1
    68   26   66 1
    69   26   67 1
    70   27   68 1
    71   27   69 1
    72   28   70 1
    73   29   71 1
    74   34   72 1
@<TRIPOS>MOLECULE
1dwc_ligand_196
   72    74     0     0     0
SMALL
USER_CHARGES

mmff94s_NoEstat = 79.35
@<TRIPOS>ATOM
      1 C1         -2.9821   -5.2402    6.1755 C.ar      1 <0>        -0.1945
      2 C2         -4.2536   -5.5662    5.7083 C.ar      1 <0>        -0.0294
      3 C3         -2.3862   -4.0437    5.7881 C.ar      1 <0>        -0.0143
      4 C4         -4.9394   -4.6928    4.8521 C.ar      1 <0>        -0.1552
      5 C5         -4.3313   -3.4931    4.4321 C.ar      1 <0>         0.3076
      6 C6         -3.0575   -3.1757    4.9254 C.ar      1 <0>        -0.4908
      7 C7          2.9762   -3.0374    5.3790 C.2       1 <0>         0.5994
      8 C8          0.8654   -1.4427    3.2413 C.2       1 <0>         0.6462
      9 C9          1.7699   -7.1193    0.0630 C.cat     1 <0>         0.6305
     10 C10        -6.3137   -5.0656    4.3497 C.3       1 <0>        -0.0319
     11 C11         2.4006    0.6688    5.8299 C.3       1 <0>        -0.0918
     12 C12         1.7620   -1.5078    6.8886 C.3       1 <0>        -0.0841
     13 C13         2.4565   -0.0177    4.4711 C.3       1 <0>         0.0870
     14 C14        -6.2170   -3.0044    2.9255 C.3       1 <0>         0.2023
     15 C15         1.7319   -2.1748    5.5110 C.3       1 <0>         0.0778
     16 C16        -7.0924   -3.8286    3.8752 C.3       1 <0>        -0.0746
     17 C17         2.7265   -0.3161    6.9557 C.3       1 <0>        -0.0681
     18 C18        -8.3998   -4.2353    3.2009 C.3       1 <0>        -0.0944
     19 C19         2.6468    0.3706    8.3178 C.3       1 <0>        -0.0918
     20 C20        -0.5404   -4.8511    2.0458 C.3       1 <0>        -0.1192
     21 C21         0.3004   -3.5693    2.0376 C.3       1 <0>        -0.0916
     22 C22        -0.1768   -5.7847    0.8978 C.3       1 <0>         0.1883
     23 C23        -0.0078   -2.6730    3.2260 C.3       1 <0>         0.1952
     24 N1         -4.9870   -2.6082    3.5850 N.pl3     1 <0>        -0.7670
     25 N2          1.5999   -1.2067    4.4091 N.am      1 <0>        -0.4509
     26 N3          3.1011   -7.5120    0.1550 N.pl3     1 <0>        -0.8477
     27 N4          0.9786   -7.6393   -0.9556 N.pl3     1 <0>        -0.8633
     28 N5          1.2122   -6.2141    0.9723 N.pl3     1 <0>        -0.7419
     29 N6         -1.3760   -2.1385    3.1042 N.pl3     1 <0>        -0.8860
     30 O1          4.0250   -2.6820    4.8621 O.2       1 <0>        -0.5199
     31 O2          0.8891   -0.7105    2.2483 O.2       1 <0>        -0.6131
     32 O3         -3.2514   -0.7039    4.1330 O.2       1 <0>        -0.6576
     33 O4         -1.2997   -1.3890    5.5632 O.2       1 <0>        -0.6482
     34 O5          2.7663   -4.2654    5.9130 O.3       1 <0>        -0.6303
     35 S1         -2.2397   -1.6774    4.4970 S.o2      1 <0>         1.5193
     36 H1         -2.4581   -5.9177    6.8441 H         1 <0>         0.1426
     37 H2         -4.7127   -6.5018    6.0186 H         1 <0>         0.1398
     38 H3         -1.3986   -3.7764    6.1505 H         1 <0>         0.1599
     39 H4         -6.1970   -5.7813    3.5259 H         1 <0>         0.0574
     40 H5         -6.8810   -5.5622    5.1465 H         1 <0>         0.0629
     41 H6          3.1075    1.5068    5.8464 H         1 <0>         0.0614
     42 H7          1.3987    1.0896    5.9845 H         1 <0>         0.0593
     43 H8          0.7490   -1.1528    7.1229 H         1 <0>         0.0841
     44 H9          2.0241   -2.2386    7.6642 H         1 <0>         0.0679
     45 H10         2.1762    0.6981    3.6915 H         1 <0>         0.0826
     46 H11         3.4796   -0.3461    4.2516 H         1 <0>         0.0383
     47 H12        -5.9766   -3.5818    2.0242 H         1 <0>         0.0556
     48 H13        -6.7526   -2.1053    2.6011 H         1 <0>         0.0415
     49 H14         0.8899   -2.8738    5.4853 H         1 <0>         0.0851
     50 H15        -7.3408   -3.2116    4.7494 H         1 <0>         0.0639
     51 H16         3.7543   -0.6771    6.8272 H         1 <0>         0.0584
     52 H17        -9.0584   -3.3693    3.0856 H         1 <0>         0.0401
     53 H18        -8.2066   -4.6557    2.2094 H         1 <0>         0.0440
     54 H19        -8.9224   -4.9882    3.7985 H         1 <0>         0.0459
     55 H20         1.9573   -0.1639    8.9779 H         1 <0>         0.0456
     56 H21         3.6313    0.3946    8.7945 H         1 <0>         0.0366
     57 H22         2.2914    1.3997    8.2091 H         1 <0>         0.0474
     58 H23        -0.4002   -5.3741    2.9994 H         1 <0>         0.0800
     59 H24        -1.6035   -4.5964    1.9658 H         1 <0>         0.0681
     60 H25         0.1357   -3.0322    1.0943 H         1 <0>         0.0740
     61 H26         1.3654   -3.8328    2.0643 H         1 <0>         0.0631
     62 H27        -0.3350   -5.3004   -0.0711 H         1 <0>         0.0970
     63 H28        -0.8024   -6.6822    0.9336 H         1 <0>         0.0725
     64 H29         0.1003   -3.1895    4.1787 H         1 <0>         0.0839
     65 H30        -4.4812   -1.7970    3.2511 H         1 <0>         0.4531
     66 H31         3.7173   -7.1568    0.8813 H         1 <0>         0.4798
     67 H32         3.4989   -8.1703   -0.5108 H         1 <0>         0.4881
     68 H33         0.0016   -7.3736   -1.0521 H         1 <0>         0.4801
     69 H34         1.3562   -8.3001   -1.6305 H         1 <0>         0.4806
     70 H35         1.8180   -5.8498    1.7091 H         1 <0>         0.4689
     71 H36        -1.6042   -1.6955    2.2078 H         1 <0>         0.4505
     72 H37         3.5585   -4.8388    5.8359 H         1 <0>         0.4443
@<TRIPOS>BOND
     1    1    2 ar
     2    1    3 ar
     3    2    4 ar
     4    3    6 ar
     5    4    5 ar
     6    4   10 1
     7    5    6 ar
     8    5   24 1
     9    6   35 1
    10    7   15 1
    11    7   30 2
    12    7   34 1
    13    8   23 1
    14    8   25 am
    15    8   31 2
    16    9   26 1
    17    9   27 1
    18    9   28 1
    19   10   16 1
    20   11   13 1
    21   11   17 1
    22   12   15 1
    23   12   17 1
    24   13   25 1
    25   14   16 1
    26   14   24 1
    27   15   25 1
    28   16   18 1
    29   17   19 1
    30   20   21 1
    31   20   22 1
    32   21   23 1
    33   22   28 1
    34   23   29 1
    35   29   35 1
    36   32   35 2
    37   33   35 2
    38    1   36 1
    39    2   37 1
    40    3   38 1
    41   10   39 1
    42   10   40 1
    43   11   41 1
    44   11   42 1
    45   12   43 1
    46   12   44 1
    47   13   45 1
    48   13   46 1
    49   14   47 1
    50   14   48 1
    51   15   49 1
    52   16   50 1
    53   17   51 1
    54   18   52 1
    55   18   53 1
    56   18   54 1
    57   19   55 1
    58   19   56 1
    59   19   57 1
    60   20   58 1
    61   20   59 1
    62   21   60 1
    63   21   61 1
    64   22   62 1
    65   22   63 1
    66   23   64 1
    67   24   65 1
    68   26   66 1
    69   26   67 1
    70   27   68 1
    71   27   69 1
    72   28   70 1
    73   29   71 1
    74   34   72 1
@<TRIPOS>MOLECULE
1dwc_ligand_197
   72    74     0     0     0
SMALL
USER_CHARGES

mmff94s_NoEstat = 79.36
@<TRIPOS>ATOM
      1 C1         -0.1321   -5.1933    0.1573 C.ar      1 <0>        -0.1945
      2 C2         -1.2967   -4.4370    0.2715 C.ar      1 <0>        -0.0294
      3 C3          0.7451   -4.9615   -0.8981 C.ar      1 <0>        -0.0143
      4 C4         -1.5890   -3.4395   -0.6696 C.ar      1 <0>        -0.1552
      5 C5         -0.7207   -3.2182   -1.7571 C.ar      1 <0>         0.3076
      6 C6          0.4539   -3.9792   -1.8460 C.ar      1 <0>        -0.4908
      7 C7          1.8102   -1.5505    2.3702 C.2       1 <0>         0.5994
      8 C8          2.9466   -1.3973   -0.6457 C.2       1 <0>         0.6462
      9 C9          7.3062   -4.5323   -1.8364 C.cat     1 <0>         0.6305
     10 C10        -2.8594   -2.6346   -0.5344 C.3       1 <0>        -0.0319
     11 C11         4.4920   -3.4807    2.0801 C.3       1 <0>        -0.0918
     12 C12         4.1798   -1.0721    2.8769 C.3       1 <0>        -0.0841
     13 C13         4.5658   -2.7774    0.7291 C.3       1 <0>         0.0870
     14 C14        -2.2741   -1.5731   -2.7292 C.3       1 <0>         0.2023
     15 C15         3.1125   -1.0286    1.7861 C.3       1 <0>         0.0778
     16 C16        -2.7671   -1.3070   -1.3031 C.3       1 <0>        -0.0746
     17 C17         4.5869   -2.5050    3.2643 C.3       1 <0>        -0.0681
     18 C18        -4.1147   -0.5906   -1.3139 C.3       1 <0>        -0.0944
     19 C19         5.9882   -2.5079    3.8779 C.3       1 <0>        -0.0918
     20 C20         5.1203   -2.1076   -3.7746 C.3       1 <0>        -0.1192
     21 C21         4.5564   -1.3488   -2.5679 C.3       1 <0>        -0.0916
     22 C22         5.6479   -3.4850   -3.3924 C.3       1 <0>         0.1883
     23 C23         3.4544   -2.1251   -1.8653 C.3       1 <0>         0.1952
     24 N1         -0.9842   -2.2364   -2.7044 N.pl3     1 <0>        -0.7670
     25 N2          3.5192   -1.7560    0.5781 N.am      1 <0>        -0.4509
     26 N3          8.3122   -4.4229   -0.8820 N.pl3     1 <0>        -0.8477
     27 N4          6.8952   -5.7960   -2.2464 N.pl3     1 <0>        -0.8633
     28 N5          6.7009   -3.3994   -2.3908 N.pl3     1 <0>        -0.7419
     29 N6          2.2741   -2.2179   -2.7432 N.pl3     1 <0>        -0.8860
     30 O1          1.4308   -2.7108    2.3137 O.2       1 <0>        -0.5199
     31 O2          2.0685   -0.5400   -0.7710 O.2       1 <0>        -0.6131
     32 O3          2.6529   -4.7521   -3.0046 O.2       1 <0>        -0.6576
     33 O4          0.8695   -3.6258   -4.3741 O.2       1 <0>        -0.6482
     34 O5          1.1172   -0.5491    2.9655 O.3       1 <0>        -0.6303
     35 S1          1.6226   -3.7401   -3.1398 S.o2      1 <0>         1.5193
     36 H1          0.0926   -5.9603    0.8933 H         1 <0>         0.1426
     37 H2         -1.9748   -4.6230    1.1010 H         1 <0>         0.1398
     38 H3          1.6583   -5.5402   -0.9937 H         1 <0>         0.1599
     39 H4         -3.6924   -3.2386   -0.9162 H         1 <0>         0.0574
     40 H5         -3.0570   -2.4229    0.5236 H         1 <0>         0.0629
     41 H6          3.5311   -4.0088    2.1410 H         1 <0>         0.0614
     42 H7          5.2694   -4.2509    2.1463 H         1 <0>         0.0593
     43 H8          5.0641   -0.5305    2.5137 H         1 <0>         0.0841
     44 H9          3.8399   -0.5392    3.7741 H         1 <0>         0.0679
     45 H10         5.5312   -2.2723    0.6079 H         1 <0>         0.0826
     46 H11         4.4795   -3.5150   -0.0747 H         1 <0>         0.0383
     47 H12        -2.9931   -2.1963   -3.2755 H         1 <0>         0.0556
     48 H13        -2.1791   -0.6302   -3.2791 H         1 <0>         0.0415
     49 H14         2.9188    0.0160    1.5141 H         1 <0>         0.0851
     50 H15        -2.0423   -0.6556   -0.7961 H         1 <0>         0.0639
     51 H16         3.9047   -2.8651    4.0450 H         1 <0>         0.0584
     52 H17        -3.9957    0.4471   -1.6395 H         1 <0>         0.0401
     53 H18        -4.8094   -1.0885   -1.9971 H         1 <0>         0.0440
     54 H19        -4.5572   -0.5891   -0.3133 H         1 <0>         0.0459
     55 H20         6.0310   -3.1862    4.7353 H         1 <0>         0.0456
     56 H21         6.7293   -2.8350    3.1425 H         1 <0>         0.0366
     57 H22         6.2606   -1.5045    4.2187 H         1 <0>         0.0474
     58 H23         4.3389   -2.2150   -4.5365 H         1 <0>         0.0800
     59 H24         5.9381   -1.5325   -4.2238 H         1 <0>         0.0681
     60 H25         4.1906   -0.3664   -2.8945 H         1 <0>         0.0740
     61 H26         5.3633   -1.1575   -1.8491 H         1 <0>         0.0631
     62 H27         6.0463   -4.0122   -4.2651 H         1 <0>         0.0970
     63 H28         4.8397   -4.0910   -2.9708 H         1 <0>         0.0725
     64 H29         3.7703   -3.1244   -1.5692 H         1 <0>         0.0839
     65 H30        -0.3716   -2.1656   -3.5075 H         1 <0>         0.4531
     66 H31         8.6460   -3.5206   -0.5539 H         1 <0>         0.4798
     67 H32         8.7476   -5.2520   -0.4844 H         1 <0>         0.4881
     68 H33         6.1625   -5.9122   -2.9422 H         1 <0>         0.4801
     69 H34         7.3161   -6.6377   -1.8601 H         1 <0>         0.4806
     70 H35         7.0240   -2.4854   -2.0698 H         1 <0>         0.4689
     71 H36         1.6613   -1.3957   -2.7560 H         1 <0>         0.4505
     72 H37         0.2712   -0.8659    3.3478 H         1 <0>         0.4443
@<TRIPOS>BOND
     1    1    2 ar
     2    1    3 ar
     3    2    4 ar
     4    3    6 ar
     5    4    5 ar
     6    4   10 1
     7    5    6 ar
     8    5   24 1
     9    6   35 1
    10    7   15 1
    11    7   30 2
    12    7   34 1
    13    8   23 1
    14    8   25 am
    15    8   31 2
    16    9   26 1
    17    9   27 1
    18    9   28 1
    19   10   16 1
    20   11   13 1
    21   11   17 1
    22   12   15 1
    23   12   17 1
    24   13   25 1
    25   14   16 1
    26   14   24 1
    27   15   25 1
    28   16   18 1
    29   17   19 1
    30   20   21 1
    31   20   22 1
    32   21   23 1
    33   22   28 1
    34   23   29 1
    35   29   35 1
    36   32   35 2
    37   33   35 2
    38    1   36 1
    39    2   37 1
    40    3   38 1
    41   10   39 1
    42   10   40 1
    43   11   41 1
    44   11   42 1
    45   12   43 1
    46   12   44 1
    47   13   45 1
    48   13   46 1
    49   14   47 1
    50   14   48 1
    51   15   49 1
    52   16   50 1
    53   17   51 1
    54   18   52 1
    55   18   53 1
    56   18   54 1
    57   19   55 1
    58   19   56 1
    59   19   57 1
    60   20   58 1
    61   20   59 1
    62   21   60 1
    63   21   61 1
    64   22   62 1
    65   22   63 1
    66   23   64 1
    67   24   65 1
    68   26   66 1
    69   26   67 1
    70   27   68 1
    71   27   69 1
    72   28   70 1
    73   29   71 1
    74   34   72 1
@<TRIPOS>MOLECULE
1dwc_ligand_198
   72    74     0     0     0
SMALL
USER_CHARGES

mmff94s_NoEstat = 79.37
@<TRIPOS>ATOM
      1 C1          4.9869   -2.2156    2.0944 C.ar      1 <0>        -0.1945
      2 C2          5.6791   -2.0613    3.2937 C.ar      1 <0>        -0.0294
      3 C3          3.8430   -3.0069    2.0508 C.ar      1 <0>        -0.0143
      4 C4          5.2320   -2.7022    4.4581 C.ar      1 <0>        -0.1552
      5 C5          4.0589   -3.4815    4.4288 C.ar      1 <0>         0.3076
      6 C6          3.3849   -3.6375    3.2088 C.ar      1 <0>        -0.4908
      7 C7         -1.4628    0.1636    1.3526 C.2       1 <0>         0.5994
      8 C8          0.8654   -1.4427    3.2413 C.2       1 <0>         0.6462
      9 C9         -3.0269   -4.2491    7.1046 C.cat     1 <0>         0.6305
     10 C10         5.9911   -2.5161    5.7500 C.3       1 <0>        -0.0319
     11 C11         2.1918    0.8805    0.7195 C.3       1 <0>        -0.0918
     12 C12         0.2821   -0.3679   -0.3105 C.3       1 <0>        -0.0841
     13 C13         1.6113    0.6116    2.1020 C.3       1 <0>         0.0870
     14 C14         4.1652   -3.8339    6.8649 C.3       1 <0>         0.2023
     15 C15        -0.2506   -0.7126    1.0828 C.3       1 <0>         0.0778
     16 C16         5.6794   -3.6141    6.7799 C.3       1 <0>        -0.0746
     17 C17         1.0859    0.9390   -0.3376 C.3       1 <0>        -0.0681
     18 C18         6.4292   -4.9155    6.4729 C.3       1 <0>        -0.0944
     19 C19         1.6740    1.1859   -1.7255 C.3       1 <0>        -0.0918
     20 C20        -1.0866   -2.1427    5.4567 C.3       1 <0>        -0.1192
     21 C21        -1.3133   -2.4479    3.9716 C.3       1 <0>        -0.0916
     22 C22        -2.3970   -1.9935    6.2196 C.3       1 <0>         0.1883
     23 C23        -0.0078   -2.6730    3.2260 C.3       1 <0>         0.1952
     24 N1          3.5964   -4.1342    5.5646 N.pl3     1 <0>        -0.7670
     25 N2          0.7744   -0.5925    2.1333 N.am      1 <0>        -0.4509
     26 N3         -3.7970   -5.4059    7.0420 N.pl3     1 <0>        -0.8477
     27 N4         -2.0778   -4.1204    8.1129 N.pl3     1 <0>        -0.8633
     28 N5         -3.1876   -3.2152    6.1760 N.pl3     1 <0>        -0.7419
     29 N6          0.7961   -3.6905    3.9267 N.pl3     1 <0>        -0.8860
     30 O1         -2.4527    0.2312    0.6392 O.2       1 <0>        -0.5199
     31 O2          1.6103   -1.2468    4.2054 O.2       1 <0>        -0.6131
     32 O3          1.5564   -4.6635    1.6664 O.2       1 <0>        -0.6576
     33 O4          2.1832   -5.8521    3.7922 O.2       1 <0>        -0.6482
     34 O5         -1.2983    0.8686    2.4985 O.3       1 <0>        -0.6303
     35 S1          1.9328   -4.6215    3.0666 S.o2      1 <0>         1.5193
     36 H1          5.3415   -1.7217    1.1937 H         1 <0>         0.1426
     37 H2          6.5736   -1.4435    3.3177 H         1 <0>         0.1398
     38 H3          3.2989   -3.1393    1.1209 H         1 <0>         0.1599
     39 H4          7.0702   -2.4911    5.5552 H         1 <0>         0.0574
     40 H5          5.7075   -1.5407    6.1657 H         1 <0>         0.0629
     41 H6          2.7495    1.8244    0.7335 H         1 <0>         0.0614
     42 H7          2.9066    0.0878    0.4640 H         1 <0>         0.0593
     43 H8          0.9336   -1.1873   -0.6438 H         1 <0>         0.0841
     44 H9         -0.5414   -0.3095   -1.0336 H         1 <0>         0.0679
     45 H10         2.4269    0.5309    2.8282 H         1 <0>         0.0826
     46 H11         0.9807    1.4504    2.4206 H         1 <0>         0.0383
     47 H12         3.9365   -4.6520    7.5569 H         1 <0>         0.0556
     48 H13         3.6831   -2.9326    7.2632 H         1 <0>         0.0415
     49 H14        -0.6325   -1.7382    1.0612 H         1 <0>         0.0851
     50 H15         6.0375   -3.2752    7.7599 H         1 <0>         0.0639
     51 H16         0.4173    1.7778   -0.1080 H         1 <0>         0.0584
     52 H17         6.9364   -4.8479    5.5058 H         1 <0>         0.0401
     53 H18         7.1802   -5.1172    7.2425 H         1 <0>         0.0440
     54 H19         5.7348   -5.7603    6.4392 H         1 <0>         0.0459
     55 H20         1.1081    0.6390   -2.4855 H         1 <0>         0.0456
     56 H21         1.6425    2.2512   -1.9725 H         1 <0>         0.0366
     57 H22         2.7156    0.8534   -1.7662 H         1 <0>         0.0474
     58 H23        -0.4913   -2.9455    5.9081 H         1 <0>         0.0800
     59 H24        -0.5143   -1.2136    5.5600 H         1 <0>         0.0681
     60 H25        -1.8840   -1.6286    3.5148 H         1 <0>         0.0740
     61 H26        -1.9315   -3.3495    3.8758 H         1 <0>         0.0631
     62 H27        -3.0022   -1.1781    5.8107 H         1 <0>         0.0970
     63 H28        -2.1935   -1.7693    7.2716 H         1 <0>         0.0725
     64 H29        -0.1638   -2.9774    2.1921 H         1 <0>         0.0839
     65 H30         2.7093   -4.6197    5.5108 H         1 <0>         0.4531
     66 H31        -4.5036   -5.5429    6.3243 H         1 <0>         0.4798
     67 H32        -3.6741   -6.1527    7.7218 H         1 <0>         0.4881
     68 H33        -1.4980   -3.2881    8.1880 H         1 <0>         0.4801
     69 H34        -1.9378   -4.8560    8.8013 H         1 <0>         0.4806
     70 H35        -3.8923   -3.3388    5.4474 H         1 <0>         0.4689
     71 H36         0.9382   -3.5340    4.9302 H         1 <0>         0.4505
     72 H37        -2.0705    1.4427    2.6896 H         1 <0>         0.4443
@<TRIPOS>BOND
     1    1    2 ar
     2    1    3 ar
     3    2    4 ar
     4    3    6 ar
     5    4    5 ar
     6    4   10 1
     7    5    6 ar
     8    5   24 1
     9    6   35 1
    10    7   15 1
    11    7   30 2
    12    7   34 1
    13    8   23 1
    14    8   25 am
    15    8   31 2
    16    9   26 1
    17    9   27 1
    18    9   28 1
    19   10   16 1
    20   11   13 1
    21   11   17 1
    22   12   15 1
    23   12   17 1
    24   13   25 1
    25   14   16 1
    26   14   24 1
    27   15   25 1
    28   16   18 1
    29   17   19 1
    30   20   21 1
    31   20   22 1
    32   21   23 1
    33   22   28 1
    34   23   29 1
    35   29   35 1
    36   32   35 2
    37   33   35 2
    38    1   36 1
    39    2   37 1
    40    3   38 1
    41   10   39 1
    42   10   40 1
    43   11   41 1
    44   11   42 1
    45   12   43 1
    46   12   44 1
    47   13   45 1
    48   13   46 1
    49   14   47 1
    50   14   48 1
    51   15   49 1
    52   16   50 1
    53   17   51 1
    54   18   52 1
    55   18   53 1
    56   18   54 1
    57   19   55 1
    58   19   56 1
    59   19   57 1
    60   20   58 1
    61   20   59 1
    62   21   60 1
    63   21   61 1
    64   22   62 1
    65   22   63 1
    66   23   64 1
    67   24   65 1
    68   26   66 1
    69   26   67 1
    70   27   68 1
    71   27   69 1
    72   28   70 1
    73   29   71 1
    74   34   72 1
@<TRIPOS>MOLECULE
1dwc_ligand_199
   72    74     0     0     0
SMALL
USER_CHARGES

mmff94s_NoEstat = 79.37
@<TRIPOS>ATOM
      1 C1         -3.3475   -6.3503    1.8791 C.ar      1 <0>        -0.1945
      2 C2         -3.9958   -5.9344    0.7180 C.ar      1 <0>        -0.0294
      3 C3         -2.9512   -5.4113    2.8268 C.ar      1 <0>        -0.0143
      4 C4         -4.2554   -4.5738    0.4999 C.ar      1 <0>        -0.1552
      5 C5         -3.8316   -3.6142    1.4408 C.ar      1 <0>         0.3076
      6 C6         -3.1944   -4.0540    2.6102 C.ar      1 <0>        -0.4908
      7 C7          1.4392   -0.8453    6.5401 C.2       1 <0>         0.5994
      8 C8          0.8654   -1.4427    3.2413 C.2       1 <0>         0.6462
      9 C9          2.0746   -5.2044   -1.4852 C.cat     1 <0>         0.6305
     10 C10        -4.9524   -4.1403   -0.7675 C.3       1 <0>        -0.0319
     11 C11        -0.2133    1.8495    4.4716 C.3       1 <0>        -0.0918
     12 C12        -0.7971    0.1467    6.2113 C.3       1 <0>        -0.0841
     13 C13         0.8705    0.9213    3.9384 C.3       1 <0>         0.0870
     14 C14        -4.5641   -1.7769   -0.0261 C.3       1 <0>         0.2023
     15 C15         0.2315   -0.8195    5.6178 C.3       1 <0>         0.0778
     16 C16        -5.5921   -2.7519   -0.6095 C.3       1 <0>        -0.0746
     17 C17        -0.4444    1.6202    5.9675 C.3       1 <0>        -0.0681
     18 C18        -6.1301   -2.2464   -1.9453 C.3       1 <0>        -0.0944
     19 C19        -1.5476    2.5365    6.4932 C.3       1 <0>        -0.0918
     20 C20         0.0249   -2.8727    0.7002 C.3       1 <0>        -0.1192
     21 C21         0.3004   -3.5693    2.0376 C.3       1 <0>        -0.0916
     22 C22         0.2602   -3.7963   -0.4886 C.3       1 <0>         0.1883
     23 C23        -0.0078   -2.6730    3.2260 C.3       1 <0>         0.1952
     24 N1         -4.0757   -2.2595    1.2518 N.pl3     1 <0>        -0.7670
     25 N2          0.5923   -0.4892    4.2287 N.am      1 <0>        -0.4509
     26 N3          3.3877   -5.6631   -1.4955 N.pl3     1 <0>        -0.8477
     27 N4          1.1890   -5.6621   -2.4548 N.pl3     1 <0>        -0.8633
     28 N5          1.6278   -4.2942   -0.5212 N.pl3     1 <0>        -0.7419
     29 N6         -1.3760   -2.1385    3.1042 N.pl3     1 <0>        -0.8860
     30 O1          2.4397   -0.1566    6.4056 O.2       1 <0>        -0.5199
     31 O2          1.7588   -1.3297    2.3975 O.2       1 <0>        -0.6131
     32 O3         -3.7495   -1.9880    4.0928 O.2       1 <0>        -0.6576
     33 O4         -2.1627   -3.7355    4.9602 O.2       1 <0>        -0.6482
     34 O5          1.2594   -1.7432    7.5394 O.3       1 <0>        -0.6303
     35 S1         -2.6746   -2.9347    3.8647 S.o2      1 <0>         1.5193
     36 H1         -3.1550   -7.4065    2.0458 H         1 <0>         0.1426
     37 H2         -4.3045   -6.6753   -0.0157 H         1 <0>         0.1398
     38 H3         -2.4509   -5.7242    3.7377 H         1 <0>         0.1599
     39 H4         -4.2148   -4.1296   -1.5800 H         1 <0>         0.0574
     40 H5         -5.7315   -4.8656   -1.0323 H         1 <0>         0.0629
     41 H6          0.0752    2.8917    4.2907 H         1 <0>         0.0614
     42 H7         -1.1467    1.6735    3.9216 H         1 <0>         0.0593
     43 H8         -1.7726   -0.0612    5.7506 H         1 <0>         0.0841
     44 H9         -0.9156   -0.0310    7.2877 H         1 <0>         0.0679
     45 H10         0.9823    1.0763    2.8603 H         1 <0>         0.0826
     46 H11         1.8372    1.1600    4.3982 H         1 <0>         0.0383
     47 H12        -3.7191   -1.6505   -0.7142 H         1 <0>         0.0556
     48 H13        -5.0170   -0.7893    0.1158 H         1 <0>         0.0415
     49 H14        -0.1847   -1.8312    5.6559 H         1 <0>         0.0851
     50 H15        -6.4375   -2.8304    0.0874 H         1 <0>         0.0639
     51 H16         0.4759    1.8650    6.5120 H         1 <0>         0.0584
     52 H17        -6.7909   -1.3877   -1.7933 H         1 <0>         0.0401
     53 H18        -5.3086   -1.9377   -2.5987 H         1 <0>         0.0440
     54 H19        -6.6976   -3.0320   -2.4531 H         1 <0>         0.0459
     55 H20        -2.3332    1.9515    6.9808 H         1 <0>         0.0456
     56 H21        -1.1437    3.2458    7.2218 H         1 <0>         0.0366
     57 H22        -1.9990    3.1037    5.6737 H         1 <0>         0.0474
     58 H23        -1.0105   -2.5120    0.6824 H         1 <0>         0.0800
     59 H24         0.6776   -1.9980    0.5976 H         1 <0>         0.0681
     60 H25         1.3460   -3.9033    2.0652 H         1 <0>         0.0740
     61 H26        -0.3175   -4.4733    2.1109 H         1 <0>         0.0631
     62 H27         0.0590   -3.2831   -1.4342 H         1 <0>         0.0970
     63 H28        -0.4054   -4.6631   -0.4257 H         1 <0>         0.0725
     64 H29         0.1003   -3.1895    4.1787 H         1 <0>         0.0839
     65 H30        -3.6865   -1.6028    1.9171 H         1 <0>         0.4531
     66 H31         4.0702   -5.3548   -0.8082 H         1 <0>         0.4798
     67 H32         3.7046   -6.3246   -2.2006 H         1 <0>         0.4881
     68 H33         0.2221   -5.3473   -2.4765 H         1 <0>         0.4801
     69 H34         1.4849   -6.3248   -3.1675 H         1 <0>         0.4806
     70 H35         2.3012   -3.9765    0.1776 H         1 <0>         0.4689
     71 H36        -1.4476   -1.1318    2.9219 H         1 <0>         0.4505
     72 H37         2.0301   -1.7762    8.1454 H         1 <0>         0.4443
@<TRIPOS>BOND
     1    1    2 ar
     2    1    3 ar
     3    2    4 ar
     4    3    6 ar
     5    4    5 ar
     6    4   10 1
     7    5    6 ar
     8    5   24 1
     9    6   35 1
    10    7   15 1
    11    7   30 2
    12    7   34 1
    13    8   23 1
    14    8   25 am
    15    8   31 2
    16    9   26 1
    17    9   27 1
    18    9   28 1
    19   10   16 1
    20   11   13 1
    21   11   17 1
    22   12   15 1
    23   12   17 1
    24   13   25 1
    25   14   16 1
    26   14   24 1
    27   15   25 1
    28   16   18 1
    29   17   19 1
    30   20   21 1
    31   20   22 1
    32   21   23 1
    33   22   28 1
    34   23   29 1
    35   29   35 1
    36   32   35 2
    37   33   35 2
    38    1   36 1
    39    2   37 1
    40    3   38 1
    41   10   39 1
    42   10   40 1
    43   11   41 1
    44   11   42 1
    45   12   43 1
    46   12   44 1
    47   13   45 1
    48   13   46 1
    49   14   47 1
    50   14   48 1
    51   15   49 1
    52   16   50 1
    53   17   51 1
    54   18   52 1
    55   18   53 1
    56   18   54 1
    57   19   55 1
    58   19   56 1
    59   19   57 1
    60   20   58 1
    61   20   59 1
    62   21   60 1
    63   21   61 1
    64   22   62 1
    65   22   63 1
    66   23   64 1
    67   24   65 1
    68   26   66 1
    69   26   67 1
    70   27   68 1
    71   27   69 1
    72   28   70 1
    73   29   71 1
    74   34   72 1
@<TRIPOS>MOLECULE
1dwc_ligand_200
   72    74     0     0     0
SMALL
USER_CHARGES

mmff94s_NoEstat = 79.41
@<TRIPOS>ATOM
      1 C1         -2.2959   -2.3538    7.8119 C.ar      1 <0>        -0.1945
      2 C2         -2.6720   -1.0237    7.9869 C.ar      1 <0>        -0.0294
      3 C3         -2.3070   -2.9163    6.5390 C.ar      1 <0>        -0.0143
      4 C4         -3.0584   -0.2458    6.8861 C.ar      1 <0>        -0.1552
      5 C5         -3.1002   -0.8160    5.5982 C.ar      1 <0>         0.3076
      6 C6         -2.7033   -2.1518    5.4404 C.ar      1 <0>        -0.4908
      7 C7          3.5686   -3.4379    3.7704 C.2       1 <0>         0.5994
      8 C8          0.8654   -1.4427    3.2413 C.2       1 <0>         0.6462
      9 C9          2.0746   -5.2044   -1.4852 C.cat     1 <0>         0.6305
     10 C10        -3.4700    1.1919    7.0953 C.3       1 <0>        -0.0319
     11 C11         3.4440   -0.0674    5.4719 C.3       1 <0>        -0.0918
     12 C12         3.1682   -2.4952    6.0163 C.3       1 <0>        -0.0841
     13 C13         2.9000   -0.3276    4.0730 C.3       1 <0>         0.0870
     14 C14        -4.0628    1.2474    4.6598 C.3       1 <0>         0.2023
     15 C15         2.5392   -2.7371    4.6417 C.3       1 <0>         0.0778
     16 C16        -3.3611    2.0019    5.7939 C.3       1 <0>        -0.0746
     17 C17         4.1435   -1.3104    6.0281 C.3       1 <0>        -0.0681
     18 C18        -3.9527    3.3976    5.9715 C.3       1 <0>        -0.0944
     19 C19         4.6673   -1.0527    7.4396 C.3       1 <0>        -0.0918
     20 C20         0.0249   -2.8727    0.7002 C.3       1 <0>        -0.1192
     21 C21         0.3004   -3.5693    2.0376 C.3       1 <0>        -0.0916
     22 C22         0.2602   -3.7963   -0.4886 C.3       1 <0>         0.1883
     23 C23        -0.0078   -2.6730    3.2260 C.3       1 <0>         0.1952
     24 N1         -3.4782   -0.0694    4.4890 N.pl3     1 <0>        -0.7670
     25 N2          2.0252   -1.5038    4.0223 N.am      1 <0>        -0.4509
     26 N3          3.3877   -5.6631   -1.4955 N.pl3     1 <0>        -0.8477
     27 N4          1.1890   -5.6621   -2.4548 N.pl3     1 <0>        -0.8633
     28 N5          1.6278   -4.2942   -0.5212 N.pl3     1 <0>        -0.7419
     29 N6         -1.3760   -2.1385    3.1042 N.pl3     1 <0>        -0.8860
     30 O1          4.4853   -4.1308    4.1865 O.2       1 <0>        -0.5199
     31 O2          0.5240   -0.4555    2.5844 O.2       1 <0>        -0.6131
     32 O3         -2.3304   -4.3295    4.0644 O.2       1 <0>        -0.6576
     33 O4         -3.9087   -2.5768    3.1921 O.2       1 <0>        -0.6482
     34 O5          3.3351   -3.1885    2.4588 O.3       1 <0>        -0.6303
     35 S1         -2.6746   -2.9347    3.8647 S.o2      1 <0>         1.5193
     36 H1         -1.9909   -2.9498    8.6676 H         1 <0>         0.1426
     37 H2         -2.6574   -0.5917    8.9847 H         1 <0>         0.1398
     38 H3         -2.0103   -3.9495    6.3897 H         1 <0>         0.1599
     39 H4         -4.5027    1.2042    7.4664 H         1 <0>         0.0574
     40 H5         -2.8343    1.6552    7.8598 H         1 <0>         0.0629
     41 H6          4.1435    0.7764    5.4419 H         1 <0>         0.0614
     42 H7          2.6191    0.2214    6.1357 H         1 <0>         0.0593
     43 H8          2.3618   -2.2928    6.7345 H         1 <0>         0.0841
     44 H9          3.6813   -3.3988    6.3690 H         1 <0>         0.0679
     45 H10         2.3679    0.5618    3.7197 H         1 <0>         0.0826
     46 H11         3.7232   -0.5081    3.3711 H         1 <0>         0.0383
     47 H12        -5.1346    1.1449    4.8705 H         1 <0>         0.0556
     48 H13        -3.9688    1.8032    3.7203 H         1 <0>         0.0415
     49 H14         1.7211   -3.4548    4.7590 H         1 <0>         0.0851
     50 H15        -2.2992    2.1152    5.5368 H         1 <0>         0.0639
     51 H16         5.0063   -1.5479    5.3937 H         1 <0>         0.0584
     52 H17        -3.6607    4.0473    5.1410 H         1 <0>         0.0401
     53 H18        -5.0453    3.3508    6.0047 H         1 <0>         0.0440
     54 H19        -3.5987    3.8493    6.9030 H         1 <0>         0.0459
     55 H20         4.2777   -1.8006    8.1367 H         1 <0>         0.0456
     56 H21         5.7602   -1.1000    7.4588 H         1 <0>         0.0366
     57 H22         4.3590   -0.0627    7.7891 H         1 <0>         0.0474
     58 H23        -1.0105   -2.5120    0.6824 H         1 <0>         0.0800
     59 H24         0.6776   -1.9980    0.5976 H         1 <0>         0.0681
     60 H25         1.3460   -3.9033    2.0652 H         1 <0>         0.0740
     61 H26        -0.3175   -4.4733    2.1109 H         1 <0>         0.0631
     62 H27         0.0590   -3.2831   -1.4342 H         1 <0>         0.0970
     63 H28        -0.4054   -4.6631   -0.4257 H         1 <0>         0.0725
     64 H29         0.1003   -3.1895    4.1787 H         1 <0>         0.0839
     65 H30        -3.5654   -0.5418    3.5977 H         1 <0>         0.4531
     66 H31         4.0702   -5.3548   -0.8082 H         1 <0>         0.4798
     67 H32         3.7046   -6.3246   -2.2006 H         1 <0>         0.4881
     68 H33         0.2221   -5.3473   -2.4765 H         1 <0>         0.4801
     69 H34         1.4849   -6.3248   -3.1675 H         1 <0>         0.4806
     70 H35         2.3012   -3.9765    0.1776 H         1 <0>         0.4689
     71 H36        -1.4476   -1.1318    2.9219 H         1 <0>         0.4505
     72 H37         3.9911   -3.6313    1.8792 H         1 <0>         0.4443
@<TRIPOS>BOND
     1    1    2 ar
     2    1    3 ar
     3    2    4 ar
     4    3    6 ar
     5    4    5 ar
     6    4   10 1
     7    5    6 ar
     8    5   24 1
     9    6   35 1
    10    7   15 1
    11    7   30 2
    12    7   34 1
    13    8   23 1
    14    8   25 am
    15    8   31 2
    16    9   26 1
    17    9   27 1
    18    9   28 1
    19   10   16 1
    20   11   13 1
    21   11   17 1
    22   12   15 1
    23   12   17 1
    24   13   25 1
    25   14   16 1
    26   14   24 1
    27   15   25 1
    28   16   18 1
    29   17   19 1
    30   20   21 1
    31   20   22 1
    32   21   23 1
    33   22   28 1
    34   23   29 1
    35   29   35 1
    36   32   35 2
    37   33   35 2
    38    1   36 1
    39    2   37 1
    40    3   38 1
    41   10   39 1
    42   10   40 1
    43   11   41 1
    44   11   42 1
    45   12   43 1
    46   12   44 1
    47   13   45 1
    48   13   46 1
    49   14   47 1
    50   14   48 1
    51   15   49 1
    52   16   50 1
    53   17   51 1
    54   18   52 1
    55   18   53 1
    56   18   54 1
    57   19   55 1
    58   19   56 1
    59   19   57 1
    60   20   58 1
    61   20   59 1
    62   21   60 1
    63   21   61 1
    64   22   62 1
    65   22   63 1
    66   23   64 1
    67   24   65 1
    68   26   66 1
    69   26   67 1
    70   27   68 1
    71   27   69 1
    72   28   70 1
    73   29   71 1
    74   34   72 1
@<TRIPOS>MOLECULE
1dwc_ligand_201
   72    74     0     0     0
SMALL
USER_CHARGES

mmff94s_NoEstat = 79.44
@<TRIPOS>ATOM
      1 C1         -0.5523    1.6744    5.9041 C.ar      1 <0>        -0.1945
      2 C2         -0.9694    2.6552    5.0066 C.ar      1 <0>        -0.0294
      3 C3         -0.9569    0.3546    5.7269 C.ar      1 <0>        -0.0143
      4 C4         -1.7923    2.3195    3.9220 C.ar      1 <0>        -0.1552
      5 C5         -2.2299    0.9909    3.7521 C.ar      1 <0>         0.3076
      6 C6         -1.7869    0.0155    4.6571 C.ar      1 <0>        -0.4908
      7 C7          3.5686   -3.4379    3.7704 C.2       1 <0>         0.5994
      8 C8          0.8654   -1.4427    3.2413 C.2       1 <0>         0.6462
      9 C9         -3.6509   -3.5619    0.2918 C.cat     1 <0>         0.6305
     10 C10        -2.2407    3.3967    2.9635 C.3       1 <0>        -0.0319
     11 C11         3.4440   -0.0674    5.4719 C.3       1 <0>        -0.0918
     12 C12         3.1682   -2.4952    6.0163 C.3       1 <0>        -0.0841
     13 C13         2.9000   -0.3276    4.0730 C.3       1 <0>         0.0870
     14 C14        -3.6561    1.6489    1.8554 C.3       1 <0>         0.2023
     15 C15         2.5392   -2.7371    4.6417 C.3       1 <0>         0.0778
     16 C16        -2.6763    2.8021    1.6150 C.3       1 <0>        -0.0746
     17 C17         4.1435   -1.3104    6.0281 C.3       1 <0>        -0.0681
     18 C18        -3.2993    3.8738    0.7246 C.3       1 <0>        -0.0944
     19 C19         4.6673   -1.0527    7.4396 C.3       1 <0>        -0.0918
     20 C20        -0.5404   -4.8511    2.0458 C.3       1 <0>        -0.1192
     21 C21         0.3004   -3.5693    2.0376 C.3       1 <0>        -0.0916
     22 C22        -2.0309   -4.5619    1.9177 C.3       1 <0>         0.1883
     23 C23        -0.0078   -2.6730    3.2260 C.3       1 <0>         0.1952
     24 N1         -3.0449    0.6290    2.6865 N.pl3     1 <0>        -0.7670
     25 N2          2.0252   -1.5038    4.0223 N.am      1 <0>        -0.4509
     26 N3         -3.9214   -2.9120   -0.9079 N.pl3     1 <0>        -0.8477
     27 N4         -4.7056   -3.8972    1.1340 N.pl3     1 <0>        -0.8633
     28 N5         -2.3424   -3.8843    0.6674 N.pl3     1 <0>        -0.7419
     29 N6         -1.3760   -2.1385    3.1042 N.pl3     1 <0>        -0.8860
     30 O1          4.3335   -2.8779    2.9993 O.2       1 <0>        -0.5199
     31 O2          0.5240   -0.4555    2.5844 O.2       1 <0>        -0.6131
     32 O3         -1.7140   -2.3916    5.6449 O.2       1 <0>        -0.6576
     33 O4         -3.6601   -1.7094    4.2056 O.2       1 <0>        -0.6482
     34 O5          3.5241   -4.7791    3.9616 O.3       1 <0>        -0.6303
     35 S1         -2.2397   -1.6774    4.4970 S.o2      1 <0>         1.5193
     36 H1          0.0908    1.9391    6.7389 H         1 <0>         0.1426
     37 H2         -0.6459    3.6833    5.1512 H         1 <0>         0.1398
     38 H3         -0.6333   -0.4189    6.4161 H         1 <0>         0.1599
     39 H4         -3.0724    3.9441    3.4249 H         1 <0>         0.0574
     40 H5         -1.4243    4.1094    2.7937 H         1 <0>         0.0629
     41 H6          4.1435    0.7764    5.4419 H         1 <0>         0.0614
     42 H7          2.6191    0.2214    6.1357 H         1 <0>         0.0593
     43 H8          2.3618   -2.2928    6.7345 H         1 <0>         0.0841
     44 H9          3.6813   -3.3988    6.3690 H         1 <0>         0.0679
     45 H10         2.3679    0.5618    3.7197 H         1 <0>         0.0826
     46 H11         3.7232   -0.5081    3.3711 H         1 <0>         0.0383
     47 H12        -4.5696    2.0142    2.3409 H         1 <0>         0.0556
     48 H13        -3.9536    1.1996    0.9014 H         1 <0>         0.0415
     49 H14         1.7211   -3.4548    4.7590 H         1 <0>         0.0851
     50 H15        -1.7894    2.4087    1.1001 H         1 <0>         0.0639
     51 H16         5.0063   -1.5479    5.3937 H         1 <0>         0.0584
     52 H17        -3.3831    3.5161   -0.3060 H         1 <0>         0.0401
     53 H18        -4.3001    4.1356    1.0809 H         1 <0>         0.0440
     54 H19        -2.6852    4.7793    0.7260 H         1 <0>         0.0459
     55 H20         4.2777   -1.8006    8.1367 H         1 <0>         0.0456
     56 H21         5.7602   -1.1000    7.4588 H         1 <0>         0.0366
     57 H22         4.3590   -0.0627    7.7891 H         1 <0>         0.0474
     58 H23        -0.2231   -5.5016    1.2219 H         1 <0>         0.0800
     59 H24        -0.3698   -5.3992    2.9795 H         1 <0>         0.0681
     60 H25         0.1357   -3.0322    1.0943 H         1 <0>         0.0740
     61 H26         1.3654   -3.8328    2.0643 H         1 <0>         0.0631
     62 H27        -2.3852   -3.9376    2.7441 H         1 <0>         0.0970
     63 H28        -2.5962   -5.4991    1.9351 H         1 <0>         0.0725
     64 H29         0.1003   -3.1895    4.1787 H         1 <0>         0.0839
     65 H30        -3.3945   -0.3205    2.6487 H         1 <0>         0.4531
     66 H31        -3.1828   -2.6459   -1.5536 H         1 <0>         0.4798
     67 H32        -4.8760   -2.6807   -1.1731 H         1 <0>         0.4881
     68 H33        -4.5434   -4.3726    2.0184 H         1 <0>         0.4801
     69 H34        -5.6673   -3.6767    0.8868 H         1 <0>         0.4806
     70 H35        -1.5893   -3.6253    0.0283 H         1 <0>         0.4689
     71 H36        -1.6042   -1.6955    2.2078 H         1 <0>         0.4505
     72 H37         4.1809   -5.2504    3.4059 H         1 <0>         0.4443
@<TRIPOS>BOND
     1    1    2 ar
     2    1    3 ar
     3    2    4 ar
     4    3    6 ar
     5    4    5 ar
     6    4   10 1
     7    5    6 ar
     8    5   24 1
     9    6   35 1
    10    7   15 1
    11    7   30 2
    12    7   34 1
    13    8   23 1
    14    8   25 am
    15    8   31 2
    16    9   26 1
    17    9   27 1
    18    9   28 1
    19   10   16 1
    20   11   13 1
    21   11   17 1
    22   12   15 1
    23   12   17 1
    24   13   25 1
    25   14   16 1
    26   14   24 1
    27   15   25 1
    28   16   18 1
    29   17   19 1
    30   20   21 1
    31   20   22 1
    32   21   23 1
    33   22   28 1
    34   23   29 1
    35   29   35 1
    36   32   35 2
    37   33   35 2
    38    1   36 1
    39    2   37 1
    40    3   38 1
    41   10   39 1
    42   10   40 1
    43   11   41 1
    44   11   42 1
    45   12   43 1
    46   12   44 1
    47   13   45 1
    48   13   46 1
    49   14   47 1
    50   14   48 1
    51   15   49 1
    52   16   50 1
    53   17   51 1
    54   18   52 1
    55   18   53 1
    56   18   54 1
    57   19   55 1
    58   19   56 1
    59   19   57 1
    60   20   58 1
    61   20   59 1
    62   21   60 1
    63   21   61 1
    64   22   62 1
    65   22   63 1
    66   23   64 1
    67   24   65 1
    68   26   66 1
    69   26   67 1
    70   27   68 1
    71   27   69 1
    72   28   70 1
    73   29   71 1
    74   34   72 1
@<TRIPOS>MOLECULE
1dwc_ligand_202
   72    74     0     0     0
SMALL
USER_CHARGES

mmff94s_NoEstat = 79.47
@<TRIPOS>ATOM
      1 C1         -2.8453   -5.2759    6.6308 C.ar      1 <0>        -0.1945
      2 C2         -2.2322   -5.1306    7.8734 C.ar      1 <0>        -0.0294
      3 C3         -2.0700   -5.3199    5.4760 C.ar      1 <0>        -0.0143
      4 C4         -0.8370   -5.0243    7.9679 C.ar      1 <0>        -0.1552
      5 C5         -0.0434   -5.0968    6.8063 C.ar      1 <0>         0.3076
      6 C6         -0.6800   -5.2276    5.5634 C.ar      1 <0>        -0.4908
      7 C7          1.0326   -1.5891   -0.1526 C.2       1 <0>         0.5994
      8 C8          0.8654   -1.4427    3.2413 C.2       1 <0>         0.6462
      9 C9         -5.3792    0.5120    4.1450 C.cat     1 <0>         0.6305
     10 C10        -0.1907   -4.8756    9.3242 C.3       1 <0>        -0.0319
     11 C11         4.0928   -0.4819    1.7658 C.3       1 <0>        -0.0918
     12 C12         3.2369   -2.4756    0.5172 C.3       1 <0>        -0.0841
     13 C13         2.6673   -0.1389    2.1793 C.3       1 <0>         0.0870
     14 C14         2.0228   -5.0431    8.1470 C.3       1 <0>         0.2023
     15 C15         1.8171   -2.1794    1.0075 C.3       1 <0>         0.0778
     16 C16         1.2359   -4.3091    9.2381 C.3       1 <0>        -0.0746
     17 C17         4.1123   -1.2187    0.4240 C.3       1 <0>        -0.0681
     18 C18         1.2365   -2.7918    9.0202 C.3       1 <0>        -0.0944
     19 C19         5.5413   -1.5810    0.0243 C.3       1 <0>        -0.0918
     20 C20        -2.1115   -1.2711    3.3990 C.3       1 <0>        -0.1192
     21 C21        -1.3133   -2.4479    3.9716 C.3       1 <0>        -0.0916
     22 C22        -3.3821   -0.9970    4.1941 C.3       1 <0>         0.1883
     23 C23        -0.0078   -2.6730    3.2260 C.3       1 <0>         0.1952
     24 N1          1.3401   -4.9869    6.8682 N.pl3     1 <0>        -0.7670
     25 N2          1.7920   -1.3156    2.2000 N.am      1 <0>        -0.4509
     26 N3         -6.0873    1.5705    3.5854 N.pl3     1 <0>        -0.8477
     27 N4         -5.9120   -0.1549    5.2429 N.pl3     1 <0>        -0.8633
     28 N5         -4.1449    0.1056    3.6268 N.pl3     1 <0>        -0.7419
     29 N6          0.7961   -3.6905    3.9267 N.pl3     1 <0>        -0.8860
     30 O1          0.8941   -0.3947   -0.3706 O.2       1 <0>        -0.5199
     31 O2          0.7326   -0.6231    4.1542 O.2       1 <0>        -0.6131
     32 O3          1.3500   -6.1855    4.2455 O.2       1 <0>        -0.6576
     33 O4         -0.7339   -5.5366    2.9962 O.2       1 <0>        -0.6482
     34 O5          0.4997   -2.5717   -0.9193 O.3       1 <0>        -0.6303
     35 S1          0.2254   -5.2894    4.0556 S.o2      1 <0>         1.5193
     36 H1         -3.9272   -5.3514    6.5631 H         1 <0>         0.1426
     37 H2         -2.8460   -5.0943    8.7703 H         1 <0>         0.1398
     38 H3         -2.5369   -5.4268    4.5019 H         1 <0>         0.1599
     39 H4         -0.8030   -4.2318    9.9673 H         1 <0>         0.0574
     40 H5         -0.1565   -5.8697    9.7881 H         1 <0>         0.0629
     41 H6          4.6862    0.4377    1.6990 H         1 <0>         0.0614
     42 H7          4.5556   -1.1085    2.5390 H         1 <0>         0.0593
     43 H8          3.7056   -3.1781    1.2199 H         1 <0>         0.0841
     44 H9          3.2100   -2.9795   -0.4573 H         1 <0>         0.0679
     45 H10         2.6813    0.3462    3.1608 H         1 <0>         0.0826
     46 H11         2.2276    0.5771    1.4744 H         1 <0>         0.0383
     47 H12         3.0237   -4.6099    8.0414 H         1 <0>         0.0556
     48 H13         2.1566   -6.0940    8.4317 H         1 <0>         0.0415
     49 H14         1.3264   -3.1308    1.2358 H         1 <0>         0.0851
     50 H15         1.7316   -4.4829   10.2012 H         1 <0>         0.0639
     51 H16         3.7098   -0.5563   -0.3523 H         1 <0>         0.0584
     52 H17         0.2205   -2.4295    8.8367 H         1 <0>         0.0401
     53 H18         1.6320   -2.2769    9.9008 H         1 <0>         0.0440
     54 H19         1.8571   -2.5275    8.1588 H         1 <0>         0.0459
     55 H20         5.5642   -2.5489   -0.4852 H         1 <0>         0.0456
     56 H21         5.9547   -0.8262   -0.6513 H         1 <0>         0.0366
     57 H22         6.1838   -1.6417    0.9078 H         1 <0>         0.0474
     58 H23        -1.4838   -0.3719    3.3933 H         1 <0>         0.0800
     59 H24        -2.3885   -1.4831    2.3599 H         1 <0>         0.0681
     60 H25        -1.9335   -3.3536    3.9489 H         1 <0>         0.0740
     61 H26        -1.0849   -2.2531    5.0271 H         1 <0>         0.0631
     62 H27        -3.1519   -0.7547    5.2365 H         1 <0>         0.0970
     63 H28        -4.0259   -1.8823    4.1866 H         1 <0>         0.0725
     64 H29        -0.1638   -2.9774    2.1921 H         1 <0>         0.0839
     65 H30         1.8703   -5.1206    6.0159 H         1 <0>         0.4531
     66 H31        -5.7362    2.0880    2.7841 H         1 <0>         0.4798
     67 H32        -6.9840    1.8599    3.9689 H         1 <0>         0.4881
     68 H33        -5.4209   -0.9328    5.6766 H         1 <0>         0.4801
     69 H34        -6.8078    0.1174    5.6406 H         1 <0>         0.4806
     70 H35        -3.7797    0.6144    2.8203 H         1 <0>         0.4689
     71 H36         1.8068   -3.5190    3.9555 H         1 <0>         0.4505
     72 H37        -0.0129   -2.2104   -1.6737 H         1 <0>         0.4443
@<TRIPOS>BOND
     1    1    2 ar
     2    1    3 ar
     3    2    4 ar
     4    3    6 ar
     5    4    5 ar
     6    4   10 1
     7    5    6 ar
     8    5   24 1
     9    6   35 1
    10    7   15 1
    11    7   30 2
    12    7   34 1
    13    8   23 1
    14    8   25 am
    15    8   31 2
    16    9   26 1
    17    9   27 1
    18    9   28 1
    19   10   16 1
    20   11   13 1
    21   11   17 1
    22   12   15 1
    23   12   17 1
    24   13   25 1
    25   14   16 1
    26   14   24 1
    27   15   25 1
    28   16   18 1
    29   17   19 1
    30   20   21 1
    31   20   22 1
    32   21   23 1
    33   22   28 1
    34   23   29 1
    35   29   35 1
    36   32   35 2
    37   33   35 2
    38    1   36 1
    39    2   37 1
    40    3   38 1
    41   10   39 1
    42   10   40 1
    43   11   41 1
    44   11   42 1
    45   12   43 1
    46   12   44 1
    47   13   45 1
    48   13   46 1
    49   14   47 1
    50   14   48 1
    51   15   49 1
    52   16   50 1
    53   17   51 1
    54   18   52 1
    55   18   53 1
    56   18   54 1
    57   19   55 1
    58   19   56 1
    59   19   57 1
    60   20   58 1
    61   20   59 1
    62   21   60 1
    63   21   61 1
    64   22   62 1
    65   22   63 1
    66   23   64 1
    67   24   65 1
    68   26   66 1
    69   26   67 1
    70   27   68 1
    71   27   69 1
    72   28   70 1
    73   29   71 1
    74   34   72 1
@<TRIPOS>MOLECULE
1dwc_ligand_203
   72    74     0     0     0
SMALL
USER_CHARGES

mmff94s_NoEstat = 79.48
@<TRIPOS>ATOM
      1 C1         -2.7374   -5.2793   -0.2736 C.ar      1 <0>        -0.1945
      2 C2         -3.2110   -4.3658   -1.2130 C.ar      1 <0>        -0.0294
      3 C3         -2.5916   -4.8947    1.0560 C.ar      1 <0>        -0.0143
      4 C4         -3.5461   -3.0604   -0.8258 C.ar      1 <0>        -0.1552
      5 C5         -3.3740   -2.6546    0.5126 C.ar      1 <0>         0.3076
      6 C6         -2.9106   -3.5930    1.4461 C.ar      1 <0>        -0.4908
      7 C7          2.0323   -3.0842    5.9821 C.2       1 <0>         0.5994
      8 C8          0.8654   -1.4427    3.2413 C.2       1 <0>         0.6462
      9 C9          4.0141   -6.1014   -0.2251 C.cat     1 <0>         0.6305
     10 C10        -4.0509   -2.0814   -1.8586 C.3       1 <0>        -0.0319
     11 C11         3.0911    0.4998    5.4298 C.3       1 <0>        -0.0918
     12 C12         1.5534   -0.8369    6.8842 C.3       1 <0>        -0.0841
     13 C13         2.8818   -0.5022    4.3015 C.3       1 <0>         0.0870
     14 C14        -4.0009   -0.3416   -0.0541 C.3       1 <0>         0.2023
     15 C15         1.2754   -1.7924    5.7207 C.3       1 <0>         0.0778
     16 C16        -4.8257   -0.9262   -1.2054 C.3       1 <0>        -0.0746
     17 C17         2.9339   -0.1724    6.7962 C.3       1 <0>        -0.0681
     18 C18        -5.1690    0.1479   -2.2340 C.3       1 <0>        -0.0944
     19 C19         3.1216    0.8403    7.9242 C.3       1 <0>        -0.0918
     20 C20         1.7689   -4.0083    2.0091 C.3       1 <0>        -0.1192
     21 C21         0.3004   -3.5693    2.0376 C.3       1 <0>        -0.0916
     22 C22         2.0958   -4.8429    0.7769 C.3       1 <0>         0.1883
     23 C23        -0.0078   -2.6730    3.2260 C.3       1 <0>         0.1952
     24 N1         -3.6984   -1.3681    0.9253 N.pl3     1 <0>        -0.7670
     25 N2          1.5999   -1.2067    4.4091 N.am      1 <0>        -0.4509
     26 N3          5.3470   -6.4988   -0.2068 N.pl3     1 <0>        -0.8477
     27 N4          3.1913   -6.5359   -1.2586 N.pl3     1 <0>        -0.8633
     28 N5          3.4859   -5.2755    0.7729 N.pl3     1 <0>        -0.7419
     29 N6         -1.3760   -2.1385    3.1042 N.pl3     1 <0>        -0.8860
     30 O1          2.8364   -3.5938    5.2160 O.2       1 <0>        -0.5199
     31 O2          0.8891   -0.7105    2.2483 O.2       1 <0>        -0.6131
     32 O3         -3.8876   -2.4594    3.5758 O.2       1 <0>        -0.6576
     33 O4         -2.3275   -4.4157    3.8277 O.2       1 <0>        -0.6482
     34 O5          1.6924   -3.6026    7.1875 O.3       1 <0>        -0.6303
     35 S1         -2.7118   -3.1932    3.1483 S.o2      1 <0>         1.5193
     36 H1         -2.4856   -6.2914   -0.5781 H         1 <0>         0.1426
     37 H2         -3.3245   -4.6759   -2.2491 H         1 <0>         0.1398
     38 H3         -2.2294   -5.5995    1.7977 H         1 <0>         0.1599
     39 H4         -3.1889   -1.6944   -2.4168 H         1 <0>         0.0574
     40 H5         -4.7076   -2.5954   -2.5713 H         1 <0>         0.0629
     41 H6          4.0885    0.9467    5.3426 H         1 <0>         0.0614
     42 H7          2.3630    1.3153    5.3324 H         1 <0>         0.0593
     43 H8          0.7851   -0.0517    6.8776 H         1 <0>         0.0841
     44 H9          1.4567   -1.3607    7.8437 H         1 <0>         0.0679
     45 H10         2.9560    0.0148    3.3392 H         1 <0>         0.0826
     46 H11         3.6704   -1.2643    4.3172 H         1 <0>         0.0383
     47 H12        -3.0647    0.0891   -0.4306 H         1 <0>         0.0556
     48 H13        -4.5550    0.4664    0.4366 H         1 <0>         0.0415
     49 H14         0.2160   -2.0663    5.7460 H         1 <0>         0.0851
     50 H15        -5.7679   -1.3185   -0.7994 H         1 <0>         0.0639
     51 H16         3.7104   -0.9392    6.9078 H         1 <0>         0.0584
     52 H17        -5.9177    0.8380   -1.8337 H         1 <0>         0.0401
     53 H18        -4.2777    0.7235   -2.5010 H         1 <0>         0.0440
     54 H19        -5.5713   -0.3064   -3.1444 H         1 <0>         0.0459
     55 H20         2.2527    0.8404    8.5891 H         1 <0>         0.0456
     56 H21         4.0086    0.5961    8.5164 H         1 <0>         0.0366
     57 H22         3.2450    1.8489    7.5186 H         1 <0>         0.0474
     58 H23         2.4156   -3.1229    2.0318 H         1 <0>         0.0800
     59 H24         1.9949   -4.6013    2.9028 H         1 <0>         0.0681
     60 H25        -0.3448   -4.4577    2.0448 H         1 <0>         0.0740
     61 H26         0.0666   -3.0218    1.1158 H         1 <0>         0.0631
     62 H27         1.9087   -4.2801   -0.1431 H         1 <0>         0.0970
     63 H28         1.4704   -5.7411    0.7573 H         1 <0>         0.0725
     64 H29         0.1003   -3.1895    4.1787 H         1 <0>         0.0839
     65 H30        -3.4869   -1.1007    1.8788 H         1 <0>         0.4531
     66 H31         5.9857   -6.2045    0.5272 H         1 <0>         0.4798
     67 H32         5.7233   -7.0992   -0.9370 H         1 <0>         0.4881
     68 H33         2.2121   -6.2643   -1.3027 H         1 <0>         0.4801
     69 H34         3.5471   -7.1379   -1.9973 H         1 <0>         0.4806
     70 H35         4.1145   -4.9729    1.5185 H         1 <0>         0.4689
     71 H36        -1.5021   -1.1633    3.3956 H         1 <0>         0.4505
     72 H37         2.1696   -4.4391    7.3743 H         1 <0>         0.4443
@<TRIPOS>BOND
     1    1    2 ar
     2    1    3 ar
     3    2    4 ar
     4    3    6 ar
     5    4    5 ar
     6    4   10 1
     7    5    6 ar
     8    5   24 1
     9    6   35 1
    10    7   15 1
    11    7   30 2
    12    7   34 1
    13    8   23 1
    14    8   25 am
    15    8   31 2
    16    9   26 1
    17    9   27 1
    18    9   28 1
    19   10   16 1
    20   11   13 1
    21   11   17 1
    22   12   15 1
    23   12   17 1
    24   13   25 1
    25   14   16 1
    26   14   24 1
    27   15   25 1
    28   16   18 1
    29   17   19 1
    30   20   21 1
    31   20   22 1
    32   21   23 1
    33   22   28 1
    34   23   29 1
    35   29   35 1
    36   32   35 2
    37   33   35 2
    38    1   36 1
    39    2   37 1
    40    3   38 1
    41   10   39 1
    42   10   40 1
    43   11   41 1
    44   11   42 1
    45   12   43 1
    46   12   44 1
    47   13   45 1
    48   13   46 1
    49   14   47 1
    50   14   48 1
    51   15   49 1
    52   16   50 1
    53   17   51 1
    54   18   52 1
    55   18   53 1
    56   18   54 1
    57   19   55 1
    58   19   56 1
    59   19   57 1
    60   20   58 1
    61   20   59 1
    62   21   60 1
    63   21   61 1
    64   22   62 1
    65   22   63 1
    66   23   64 1
    67   24   65 1
    68   26   66 1
    69   26   67 1
    70   27   68 1
    71   27   69 1
    72   28   70 1
    73   29   71 1
    74   34   72 1
@<TRIPOS>MOLECULE
1dwc_ligand_204
   72    74     0     0     0
SMALL
USER_CHARGES

mmff94s_NoEstat = 79.53
@<TRIPOS>ATOM
      1 C1         -3.3475   -6.3503    1.8791 C.ar      1 <0>        -0.1945
      2 C2         -3.9958   -5.9344    0.7180 C.ar      1 <0>        -0.0294
      3 C3         -2.9512   -5.4113    2.8268 C.ar      1 <0>        -0.0143
      4 C4         -4.2554   -4.5738    0.4999 C.ar      1 <0>        -0.1552
      5 C5         -3.8316   -3.6142    1.4408 C.ar      1 <0>         0.3076
      6 C6         -3.1944   -4.0540    2.6102 C.ar      1 <0>        -0.4908
      7 C7          1.4392   -0.8453    6.5401 C.2       1 <0>         0.5994
      8 C8          0.8654   -1.4427    3.2413 C.2       1 <0>         0.6462
      9 C9          0.2237   -3.7376   -2.9912 C.cat     1 <0>         0.6305
     10 C10        -4.9524   -4.1403   -0.7675 C.3       1 <0>        -0.0319
     11 C11        -0.2133    1.8495    4.4716 C.3       1 <0>        -0.0918
     12 C12        -0.7971    0.1467    6.2113 C.3       1 <0>        -0.0841
     13 C13         0.8705    0.9213    3.9384 C.3       1 <0>         0.0870
     14 C14        -4.5641   -1.7769   -0.0261 C.3       1 <0>         0.2023
     15 C15         0.2315   -0.8195    5.6178 C.3       1 <0>         0.0778
     16 C16        -5.5921   -2.7519   -0.6095 C.3       1 <0>        -0.0746
     17 C17        -0.4444    1.6202    5.9675 C.3       1 <0>        -0.0681
     18 C18        -6.1301   -2.2464   -1.9453 C.3       1 <0>        -0.0944
     19 C19        -1.5476    2.5365    6.4932 C.3       1 <0>        -0.0918
     20 C20         0.0249   -2.8727    0.7002 C.3       1 <0>        -0.1192
     21 C21         0.3004   -3.5693    2.0376 C.3       1 <0>        -0.0916
     22 C22         0.2602   -3.7963   -0.4886 C.3       1 <0>         0.1883
     23 C23        -0.0078   -2.6730    3.2260 C.3       1 <0>         0.1952
     24 N1         -4.0757   -2.2595    1.2518 N.pl3     1 <0>        -0.7670
     25 N2          0.5923   -0.4892    4.2287 N.am      1 <0>        -0.4509
     26 N3         -0.0152   -3.0669   -4.1862 N.pl3     1 <0>        -0.8477
     27 N4          0.6744   -5.0526   -3.0302 N.pl3     1 <0>        -0.8633
     28 N5          0.0202   -3.1173   -1.7538 N.pl3     1 <0>        -0.7419
     29 N6         -1.3760   -2.1385    3.1042 N.pl3     1 <0>        -0.8860
     30 O1          1.4156   -0.5890    7.7347 O.2       1 <0>        -0.5199
     31 O2          1.7588   -1.3297    2.3975 O.2       1 <0>        -0.6131
     32 O3         -3.7495   -1.9880    4.0928 O.2       1 <0>        -0.6576
     33 O4         -2.1627   -3.7355    4.9602 O.2       1 <0>        -0.6482
     34 O5          2.5570   -1.1906    5.8556 O.3       1 <0>        -0.6303
     35 S1         -2.6746   -2.9347    3.8647 S.o2      1 <0>         1.5193
     36 H1         -3.1550   -7.4065    2.0458 H         1 <0>         0.1426
     37 H2         -4.3045   -6.6753   -0.0157 H         1 <0>         0.1398
     38 H3         -2.4509   -5.7242    3.7377 H         1 <0>         0.1599
     39 H4         -4.2148   -4.1296   -1.5800 H         1 <0>         0.0574
     40 H5         -5.7315   -4.8656   -1.0323 H         1 <0>         0.0629
     41 H6          0.0752    2.8917    4.2907 H         1 <0>         0.0614
     42 H7         -1.1467    1.6735    3.9216 H         1 <0>         0.0593
     43 H8         -1.7726   -0.0612    5.7506 H         1 <0>         0.0841
     44 H9         -0.9156   -0.0310    7.2877 H         1 <0>         0.0679
     45 H10         0.9823    1.0763    2.8603 H         1 <0>         0.0826
     46 H11         1.8372    1.1600    4.3982 H         1 <0>         0.0383
     47 H12        -3.7191   -1.6505   -0.7142 H         1 <0>         0.0556
     48 H13        -5.0170   -0.7893    0.1158 H         1 <0>         0.0415
     49 H14        -0.1847   -1.8312    5.6559 H         1 <0>         0.0851
     50 H15        -6.4375   -2.8304    0.0874 H         1 <0>         0.0639
     51 H16         0.4759    1.8650    6.5120 H         1 <0>         0.0584
     52 H17        -6.7909   -1.3877   -1.7933 H         1 <0>         0.0401
     53 H18        -5.3086   -1.9377   -2.5987 H         1 <0>         0.0440
     54 H19        -6.6976   -3.0320   -2.4531 H         1 <0>         0.0459
     55 H20        -2.3332    1.9515    6.9808 H         1 <0>         0.0456
     56 H21        -1.1437    3.2458    7.2218 H         1 <0>         0.0366
     57 H22        -1.9990    3.1037    5.6737 H         1 <0>         0.0474
     58 H23        -1.0105   -2.5120    0.6824 H         1 <0>         0.0800
     59 H24         0.6776   -1.9980    0.5976 H         1 <0>         0.0681
     60 H25         1.3460   -3.9033    2.0652 H         1 <0>         0.0740
     61 H26        -0.3175   -4.4733    2.1109 H         1 <0>         0.0631
     62 H27        -0.3909   -4.6751   -0.4416 H         1 <0>         0.0970
     63 H28         1.2981   -4.1440   -0.4920 H         1 <0>         0.0725
     64 H29         0.1003   -3.1895    4.1787 H         1 <0>         0.0839
     65 H30        -3.6865   -1.6028    1.9171 H         1 <0>         0.4531
     66 H31        -0.3470   -2.1063   -4.2064 H         1 <0>         0.4798
     67 H32         0.1347   -3.5257   -5.0818 H         1 <0>         0.4881
     68 H33         0.8589   -5.5723   -2.1756 H         1 <0>         0.4801
     69 H34         0.8324   -5.5290   -3.9149 H         1 <0>         0.4806
     70 H35        -0.3110   -2.1514   -1.7574 H         1 <0>         0.4689
     71 H36        -1.4476   -1.1318    2.9219 H         1 <0>         0.4505
     72 H37         3.3491   -1.2111    6.4339 H         1 <0>         0.4443
@<TRIPOS>BOND
     1    1    2 ar
     2    1    3 ar
     3    2    4 ar
     4    3    6 ar
     5    4    5 ar
     6    4   10 1
     7    5    6 ar
     8    5   24 1
     9    6   35 1
    10    7   15 1
    11    7   30 2
    12    7   34 1
    13    8   23 1
    14    8   25 am
    15    8   31 2
    16    9   26 1
    17    9   27 1
    18    9   28 1
    19   10   16 1
    20   11   13 1
    21   11   17 1
    22   12   15 1
    23   12   17 1
    24   13   25 1
    25   14   16 1
    26   14   24 1
    27   15   25 1
    28   16   18 1
    29   17   19 1
    30   20   21 1
    31   20   22 1
    32   21   23 1
    33   22   28 1
    34   23   29 1
    35   29   35 1
    36   32   35 2
    37   33   35 2
    38    1   36 1
    39    2   37 1
    40    3   38 1
    41   10   39 1
    42   10   40 1
    43   11   41 1
    44   11   42 1
    45   12   43 1
    46   12   44 1
    47   13   45 1
    48   13   46 1
    49   14   47 1
    50   14   48 1
    51   15   49 1
    52   16   50 1
    53   17   51 1
    54   18   52 1
    55   18   53 1
    56   18   54 1
    57   19   55 1
    58   19   56 1
    59   19   57 1
    60   20   58 1
    61   20   59 1
    62   21   60 1
    63   21   61 1
    64   22   62 1
    65   22   63 1
    66   23   64 1
    67   24   65 1
    68   26   66 1
    69   26   67 1
    70   27   68 1
    71   27   69 1
    72   28   70 1
    73   29   71 1
    74   34   72 1
@<TRIPOS>MOLECULE
1dwc_ligand_205
   72    74     0     0     0
SMALL
USER_CHARGES

mmff94s_NoEstat = 79.53
@<TRIPOS>ATOM
      1 C1         -1.8811   -7.3955    2.4466 C.ar      1 <0>        -0.1945
      2 C2         -2.1524   -7.9421    3.6991 C.ar      1 <0>        -0.0294
      3 C3         -0.8111   -6.5198    2.2891 C.ar      1 <0>        -0.0143
      4 C4         -1.3553   -7.6120    4.8047 C.ar      1 <0>        -0.1552
      5 C5         -0.2531   -6.7489    4.6476 C.ar      1 <0>         0.3076
      6 C6         -0.0057   -6.1967    3.3824 C.ar      1 <0>        -0.4908
      7 C7         -1.1116    1.0220    1.9825 C.2       1 <0>         0.5994
      8 C8          0.8654   -1.4427    3.2413 C.2       1 <0>         0.6462
      9 C9         -4.4983   -0.6337    6.1614 C.cat     1 <0>         0.6305
     10 C10        -1.6602   -8.2210    6.1522 C.3       1 <0>        -0.0319
     11 C11         2.1388    0.2326    0.2266 C.3       1 <0>        -0.0918
     12 C12        -0.3237   -0.1114   -0.0639 C.3       1 <0>        -0.0841
     13 C13         1.9602    0.1751    1.7384 C.3       1 <0>         0.0870
     14 C14         0.4274   -7.1008    6.9892 C.3       1 <0>         0.2023
     15 C15        -0.4871   -0.2577    1.4512 C.3       1 <0>         0.0778
     16 C16        -1.0343   -7.4292    7.3118 C.3       1 <0>        -0.0746
     17 C17         0.8749    0.7635   -0.4549 C.3       1 <0>        -0.0681
     18 C18        -1.8422   -6.1701    7.6463 C.3       1 <0>        -0.0944
     19 C19         1.0498    0.7979   -1.9719 C.3       1 <0>        -0.0918
     20 C20        -1.0866   -2.1427    5.4567 C.3       1 <0>        -0.1192
     21 C21        -1.3133   -2.4479    3.9716 C.3       1 <0>        -0.0916
     22 C22        -2.3970   -1.9935    6.2196 C.3       1 <0>         0.1883
     23 C23        -0.0078   -2.6730    3.2260 C.3       1 <0>         0.1952
     24 N1          0.5495   -6.3981    5.7259 N.pl3     1 <0>        -0.7670
     25 N2          0.7744   -0.5925    2.1333 N.am      1 <0>        -0.4509
     26 N3         -5.2661    0.3913    5.6185 N.pl3     1 <0>        -0.8477
     27 N4         -5.0125   -1.3802    7.2161 N.pl3     1 <0>        -0.8633
     28 N5         -3.2224   -0.9282    5.6689 N.pl3     1 <0>        -0.7419
     29 N6          0.7961   -3.6905    3.9267 N.pl3     1 <0>        -0.8860
     30 O1         -1.8136    1.7826    1.3329 O.2       1 <0>        -0.5199
     31 O2          1.6103   -1.2468    4.2054 O.2       1 <0>        -0.6131
     32 O3          2.5030   -5.6116    3.7560 O.2       1 <0>        -0.6576
     33 O4          1.3467   -4.8031    1.6743 O.2       1 <0>        -0.6482
     34 O5         -0.7818    1.2113    3.2835 O.3       1 <0>        -0.6303
     35 S1          1.3247   -5.0804    3.0977 S.o2      1 <0>         1.5193
     36 H1         -2.5060   -7.6499    1.5947 H         1 <0>         0.1426
     37 H2         -2.9923   -8.6232    3.8135 H         1 <0>         0.1398
     38 H3         -0.5938   -6.0831    1.3193 H         1 <0>         0.1599
     39 H4         -2.7449   -8.2917    6.2993 H         1 <0>         0.0574
     40 H5         -1.2589   -9.2425    6.1550 H         1 <0>         0.0629
     41 H6          2.9950    0.8726   -0.0171 H         1 <0>         0.0614
     42 H7          2.3692   -0.7717   -0.1514 H         1 <0>         0.0593
     43 H8         -0.1827   -1.1122   -0.4945 H         1 <0>         0.0841
     44 H9         -1.2391    0.2955   -0.5121 H         1 <0>         0.0679
     45 H10         2.8610   -0.2490    2.1940 H         1 <0>         0.0826
     46 H11         1.8403    1.1858    2.1470 H         1 <0>         0.0383
     47 H12         0.8663   -6.4902    7.7861 H         1 <0>         0.0556
     48 H13         1.0113   -8.0280    6.9371 H         1 <0>         0.0415
     49 H14        -1.2253   -1.0427    1.6435 H         1 <0>         0.0851
     50 H15        -1.0595   -8.0597    8.2092 H         1 <0>         0.0639
     51 H16         0.6944    1.7923   -0.1196 H         1 <0>         0.0584
     52 H17        -2.6327   -6.0129    6.9064 H         1 <0>         0.0401
     53 H18        -2.3068   -6.2621    8.6326 H         1 <0>         0.0440
     54 H19        -1.1948   -5.2881    7.6513 H         1 <0>         0.0459
     55 H20         0.1097    0.5485   -2.4730 H         1 <0>         0.0456
     56 H21         1.3618    1.7937   -2.3005 H         1 <0>         0.0366
     57 H22         1.8100    0.0770   -2.2875 H         1 <0>         0.0474
     58 H23        -0.4913   -2.9455    5.9081 H         1 <0>         0.0800
     59 H24        -0.5143   -1.2136    5.5600 H         1 <0>         0.0681
     60 H25        -1.8840   -1.6286    3.5148 H         1 <0>         0.0740
     61 H26        -1.9315   -3.3495    3.8758 H         1 <0>         0.0631
     62 H27        -2.2165   -1.7761    7.2772 H         1 <0>         0.0970
     63 H28        -2.9728   -2.9224    6.1586 H         1 <0>         0.0725
     64 H29        -0.1638   -2.9774    2.1921 H         1 <0>         0.0839
     65 H30         1.3727   -5.8359    5.5480 H         1 <0>         0.4531
     66 H31        -4.9308    0.9641    4.8486 H         1 <0>         0.4798
     67 H32        -6.1929    0.5993    5.9831 H         1 <0>         0.4881
     68 H33        -4.4781   -2.1366    7.6365 H         1 <0>         0.4801
     69 H34        -5.9375   -1.1898    7.5941 H         1 <0>         0.4806
     70 H35        -2.8722   -0.3628    4.8940 H         1 <0>         0.4689
     71 H36         1.3354   -3.3564    4.7325 H         1 <0>         0.4505
     72 H37        -1.1744    2.0345    3.6450 H         1 <0>         0.4443
@<TRIPOS>BOND
     1    1    2 ar
     2    1    3 ar
     3    2    4 ar
     4    3    6 ar
     5    4    5 ar
     6    4   10 1
     7    5    6 ar
     8    5   24 1
     9    6   35 1
    10    7   15 1
    11    7   30 2
    12    7   34 1
    13    8   23 1
    14    8   25 am
    15    8   31 2
    16    9   26 1
    17    9   27 1
    18    9   28 1
    19   10   16 1
    20   11   13 1
    21   11   17 1
    22   12   15 1
    23   12   17 1
    24   13   25 1
    25   14   16 1
    26   14   24 1
    27   15   25 1
    28   16   18 1
    29   17   19 1
    30   20   21 1
    31   20   22 1
    32   21   23 1
    33   22   28 1
    34   23   29 1
    35   29   35 1
    36   32   35 2
    37   33   35 2
    38    1   36 1
    39    2   37 1
    40    3   38 1
    41   10   39 1
    42   10   40 1
    43   11   41 1
    44   11   42 1
    45   12   43 1
    46   12   44 1
    47   13   45 1
    48   13   46 1
    49   14   47 1
    50   14   48 1
    51   15   49 1
    52   16   50 1
    53   17   51 1
    54   18   52 1
    55   18   53 1
    56   18   54 1
    57   19   55 1
    58   19   56 1
    59   19   57 1
    60   20   58 1
    61   20   59 1
    62   21   60 1
    63   21   61 1
    64   22   62 1
    65   22   63 1
    66   23   64 1
    67   24   65 1
    68   26   66 1
    69   26   67 1
    70   27   68 1
    71   27   69 1
    72   28   70 1
    73   29   71 1
    74   34   72 1
@<TRIPOS>MOLECULE
1dwc_ligand_206
   72    74     0     0     0
SMALL
USER_CHARGES

mmff94s_NoEstat = 79.55
@<TRIPOS>ATOM
      1 C1          3.3851   -6.9535   -3.6263 C.ar      1 <0>        -0.1945
      2 C2          3.3992   -7.7960   -2.5167 C.ar      1 <0>        -0.0294
      3 C3          4.0537   -5.7339   -3.5795 C.ar      1 <0>        -0.0143
      4 C4          4.0807   -7.4207   -1.3499 C.ar      1 <0>        -0.1552
      5 C5          4.7838   -6.2010   -1.3046 C.ar      1 <0>         0.3076
      6 C6          4.7448   -5.3596   -2.4260 C.ar      1 <0>        -0.4908
      7 C7          3.6135    0.1593    2.1008 C.2       1 <0>         0.5994
      8 C8          2.9466   -1.3973   -0.6457 C.2       1 <0>         0.6462
      9 C9         -1.2984   -4.0589   -1.3048 C.cat     1 <0>         0.6305
     10 C10         4.0913   -8.3510   -0.1607 C.3       1 <0>        -0.0319
     11 C11         5.5437    1.3083   -0.3397 C.3       1 <0>        -0.0918
     12 C12         3.3133    2.1108    0.6168 C.3       1 <0>        -0.0841
     13 C13         4.6073    0.4410   -1.1741 C.3       1 <0>         0.0870
     14 C14         5.6716   -6.7314    0.9316 C.3       1 <0>         0.2023
     15 C15         3.0358    0.6175    0.7719 C.3       1 <0>         0.0778
     16 C16         4.4488   -7.6292    1.1488 C.3       1 <0>        -0.0746
     17 C17         4.8054    2.4280    0.4117 C.3       1 <0>        -0.0681
     18 C18         3.2581   -6.8461    1.7135 C.3       1 <0>        -0.0944
     19 C19         4.9662    3.7744   -0.2964 C.3       1 <0>        -0.0918
     20 C20         1.1084   -2.3549   -2.7950 C.3       1 <0>        -0.1192
     21 C21         2.4114   -3.0756   -2.4306 C.3       1 <0>        -0.0916
     22 C22         0.0368   -3.3189   -3.2890 C.3       1 <0>         0.1883
     23 C23         3.4544   -2.1251   -1.8653 C.3       1 <0>         0.1952
     24 N1          5.4614   -5.7995   -0.1601 N.pl3     1 <0>        -0.7670
     25 N2          3.5421   -0.1648   -0.3619 N.am      1 <0>        -0.4509
     26 N3         -1.6185   -5.0132   -0.3447 N.pl3     1 <0>        -0.8477
     27 N4         -1.9705   -2.8414   -1.3009 N.pl3     1 <0>        -0.8633
     28 N5         -0.3162   -4.2987   -2.2718 N.pl3     1 <0>        -0.7419
     29 N6          4.6097   -2.8934   -1.3678 N.pl3     1 <0>        -0.8860
     30 O1          3.3259    0.6306    3.1909 O.2       1 <0>        -0.5199
     31 O2          2.0528   -1.9046    0.0367 O.2       1 <0>        -0.6131
     32 O3          6.8859   -3.9812   -1.8864 O.2       1 <0>        -0.6576
     33 O4          5.4039   -3.2609   -3.7862 O.2       1 <0>        -0.6482
     34 O5          4.5002   -0.8490    1.9151 O.3       1 <0>        -0.6303
     35 S1          5.5613   -3.8008   -2.4493 S.o2      1 <0>         1.5193
     36 H1          2.8501   -7.2466   -4.5256 H         1 <0>         0.1426
     37 H2          2.8716   -8.7458   -2.5612 H         1 <0>         0.1398
     38 H3          4.0446   -5.0667   -4.4357 H         1 <0>         0.1599
     39 H4          3.1161   -8.8419   -0.0549 H         1 <0>         0.0574
     40 H5          4.8358   -9.1334   -0.3561 H         1 <0>         0.0629
     41 H6          6.0425    0.6652    0.3976 H         1 <0>         0.0614
     42 H7          6.3377    1.7214   -0.9727 H         1 <0>         0.0593
     43 H8          2.7432    2.4779   -0.2478 H         1 <0>         0.0841
     44 H9          2.9432    2.6669    1.4876 H         1 <0>         0.0679
     45 H10         4.1201    1.0372   -1.9545 H         1 <0>         0.0826
     46 H11         5.1818   -0.3450   -1.6740 H         1 <0>         0.0383
     47 H12         5.9012   -6.1717    1.8452 H         1 <0>         0.0556
     48 H13         6.5486   -7.3503    0.7056 H         1 <0>         0.0415
     49 H14         1.9534    0.4590    0.8478 H         1 <0>         0.0851
     50 H15         4.7031   -8.3881    1.8990 H         1 <0>         0.0639
     51 H16         5.2803    2.5350    1.3953 H         1 <0>         0.0584
     52 H17         2.4256   -6.8476    1.0036 H         1 <0>         0.0401
     53 H18         2.9129   -7.2938    2.6502 H         1 <0>         0.0440
     54 H19         3.5402   -5.8076    1.9113 H         1 <0>         0.0459
     55 H20         5.9624    4.1882   -0.1137 H         1 <0>         0.0456
     56 H21         4.8337    3.6592   -1.3763 H         1 <0>         0.0366
     57 H22         4.2237    4.4910    0.0673 H         1 <0>         0.0474
     58 H23         0.7341   -1.8112   -1.9193 H         1 <0>         0.0800
     59 H24         1.3022   -1.6154   -3.5806 H         1 <0>         0.0681
     60 H25         2.8001   -3.5947   -3.3165 H         1 <0>         0.0740
     61 H26         2.2014   -3.8505   -1.6824 H         1 <0>         0.0631
     62 H27         0.3698   -3.8564   -4.1826 H         1 <0>         0.0970
     63 H28        -0.8729   -2.7667   -3.5456 H         1 <0>         0.0725
     64 H29         3.7902   -1.3903   -2.5956 H         1 <0>         0.0839
     65 H30         6.0133   -4.9515   -0.2023 H         1 <0>         0.4531
     66 H31        -1.1552   -5.9173   -0.3101 H         1 <0>         0.4798
     67 H32        -2.3346   -4.8309    0.3547 H         1 <0>         0.4881
     68 H33        -1.7614   -2.1216   -1.9884 H         1 <0>         0.4801
     69 H34        -2.6884   -2.6385   -0.6095 H         1 <0>         0.4806
     70 H35         0.1598   -5.2017   -2.2490 H         1 <0>         0.4689
     71 H36         5.0337   -2.5501   -0.4993 H         1 <0>         0.4505
     72 H37         4.8863   -1.1580    2.7624 H         1 <0>         0.4443
@<TRIPOS>BOND
     1    1    2 ar
     2    1    3 ar
     3    2    4 ar
     4    3    6 ar
     5    4    5 ar
     6    4   10 1
     7    5    6 ar
     8    5   24 1
     9    6   35 1
    10    7   15 1
    11    7   30 2
    12    7   34 1
    13    8   23 1
    14    8   25 am
    15    8   31 2
    16    9   26 1
    17    9   27 1
    18    9   28 1
    19   10   16 1
    20   11   13 1
    21   11   17 1
    22   12   15 1
    23   12   17 1
    24   13   25 1
    25   14   16 1
    26   14   24 1
    27   15   25 1
    28   16   18 1
    29   17   19 1
    30   20   21 1
    31   20   22 1
    32   21   23 1
    33   22   28 1
    34   23   29 1
    35   29   35 1
    36   32   35 2
    37   33   35 2
    38    1   36 1
    39    2   37 1
    40    3   38 1
    41   10   39 1
    42   10   40 1
    43   11   41 1
    44   11   42 1
    45   12   43 1
    46   12   44 1
    47   13   45 1
    48   13   46 1
    49   14   47 1
    50   14   48 1
    51   15   49 1
    52   16   50 1
    53   17   51 1
    54   18   52 1
    55   18   53 1
    56   18   54 1
    57   19   55 1
    58   19   56 1
    59   19   57 1
    60   20   58 1
    61   20   59 1
    62   21   60 1
    63   21   61 1
    64   22   62 1
    65   22   63 1
    66   23   64 1
    67   24   65 1
    68   26   66 1
    69   26   67 1
    70   27   68 1
    71   27   69 1
    72   28   70 1
    73   29   71 1
    74   34   72 1
@<TRIPOS>MOLECULE
1dwc_ligand_207
   72    74     0     0     0
SMALL
USER_CHARGES

mmff94s_NoEstat = 79.59
@<TRIPOS>ATOM
      1 C1          0.6093   -6.2514   -1.1331 C.ar      1 <0>        -0.1945
      2 C2          1.7391   -6.9534   -0.7183 C.ar      1 <0>        -0.0294
      3 C3          0.7343   -5.2205   -2.0596 C.ar      1 <0>        -0.0143
      4 C4          3.0029   -6.6298   -1.2325 C.ar      1 <0>        -0.1552
      5 C5          3.1419   -5.5684   -2.1489 C.ar      1 <0>         0.3076
      6 C6          1.9909   -4.8841   -2.5656 C.ar      1 <0>        -0.4908
      7 C7          1.7641   -2.7212    2.0487 C.2       1 <0>         0.5994
      8 C8          2.9466   -1.3973   -0.6457 C.2       1 <0>         0.6462
      9 C9          7.4792    1.6086   -3.5387 C.cat     1 <0>         0.6305
     10 C10         4.2174   -7.3963   -0.7662 C.3       1 <0>        -0.0319
     11 C11         5.0423   -3.2056    1.9033 C.3       1 <0>        -0.0918
     12 C12         3.6127   -1.4179    3.0409 C.3       1 <0>        -0.0841
     13 C13         4.8985   -2.2417    0.7304 C.3       1 <0>         0.0870
     14 C14         5.5937   -5.7970   -2.1205 C.3       1 <0>         0.2023
     15 C15         2.7323   -1.5757    1.8036 C.3       1 <0>         0.0778
     16 C16         5.3776   -7.2719   -1.7663 C.3       1 <0>        -0.0746
     17 C17         4.5907   -2.5900    3.2377 C.3       1 <0>        -0.0681
     18 C18         6.6521   -7.8917   -1.1998 C.3       1 <0>        -0.0944
     19 C19         5.7878   -2.1430    4.0786 C.3       1 <0>        -0.0918
     20 C20         4.0666    0.0061   -3.0917 C.3       1 <0>        -0.1192
     21 C21         4.5564   -1.3488   -2.5679 C.3       1 <0>        -0.0916
     22 C22         5.1498    0.7503   -3.8628 C.3       1 <0>         0.1883
     23 C23         3.4544   -2.1251   -1.8653 C.3       1 <0>         0.1952
     24 N1          4.3811   -5.2258   -2.6756 N.pl3     1 <0>        -0.7670
     25 N2          3.5192   -1.7560    0.5781 N.am      1 <0>        -0.4509
     26 N3          8.5899    1.8298   -2.7310 N.pl3     1 <0>        -0.8477
     27 N4          7.5182    2.0100   -4.8696 N.pl3     1 <0>        -0.8633
     28 N5          6.3266    0.9918   -3.0404 N.pl3     1 <0>        -0.7419
     29 N6          2.2741   -2.2179   -2.7432 N.pl3     1 <0>        -0.8860
     30 O1          0.9797   -2.7895    2.9833 O.2       1 <0>        -0.5199
     31 O2          2.0685   -0.5400   -0.7710 O.2       1 <0>        -0.6131
     32 O3          3.2466   -3.7694   -4.5546 O.2       1 <0>        -0.6576
     33 O4          0.7526   -3.5048   -4.3692 O.2       1 <0>        -0.6482
     34 O5          1.8885   -3.6674    1.0861 O.3       1 <0>        -0.6303
     35 S1          2.0591   -3.5786   -3.7438 S.o2      1 <0>         1.5193
     36 H1         -0.3683   -6.5110   -0.7364 H         1 <0>         0.1426
     37 H2          1.6316   -7.7594    0.0037 H         1 <0>         0.1398
     38 H3         -0.1396   -4.6708   -2.3946 H         1 <0>         0.1599
     39 H4          4.5163   -7.0048    0.2145 H         1 <0>         0.0574
     40 H5          3.9649   -8.4563   -0.6405 H         1 <0>         0.0629
     41 H6          4.4221   -4.0890    1.7005 H         1 <0>         0.0614
     42 H7          6.0756   -3.5656    1.9699 H         1 <0>         0.0593
     43 H8          4.1829   -0.4841    2.9397 H         1 <0>         0.0841
     44 H9          2.9979   -1.3064    3.9432 H         1 <0>         0.0679
     45 H10         5.5377   -1.3623    0.8715 H         1 <0>         0.0826
     46 H11         5.2196   -2.7347   -0.1923 H         1 <0>         0.0383
     47 H12         5.8905   -5.2266   -1.2316 H         1 <0>         0.0556
     48 H13         6.4019   -5.6981   -2.8538 H         1 <0>         0.0415
     49 H14         2.1101   -0.6800    1.6885 H         1 <0>         0.0851
     50 H15         5.1141   -7.8187   -2.6818 H         1 <0>         0.0639
     51 H16         4.0846   -3.3774    3.8106 H         1 <0>         0.0584
     52 H17         7.3989   -8.0232   -1.9884 H         1 <0>         0.0401
     53 H18         7.0798   -7.2498   -0.4238 H         1 <0>         0.0440
     54 H19         6.4404   -8.8706   -0.7592 H         1 <0>         0.0459
     55 H20         6.0635   -2.9197    4.7982 H         1 <0>         0.0456
     56 H21         6.6531   -1.9424    3.4397 H         1 <0>         0.0366
     57 H22         5.5491   -1.2299    4.6321 H         1 <0>         0.0474
     58 H23         3.1961   -0.1462   -3.7411 H         1 <0>         0.0800
     59 H24         3.7428    0.6319   -2.2522 H         1 <0>         0.0681
     60 H25         5.4094   -1.1917   -1.8946 H         1 <0>         0.0740
     61 H26         4.9285   -1.9502   -3.4070 H         1 <0>         0.0631
     62 H27         4.7831    1.7144   -4.2291 H         1 <0>         0.0970
     63 H28         5.4669    0.1582   -4.7272 H         1 <0>         0.0725
     64 H29         3.7703   -3.1244   -1.5692 H         1 <0>         0.0839
     65 H30         4.4419   -4.4093   -3.2714 H         1 <0>         0.4531
     66 H31         8.6061    1.5552   -1.7524 H         1 <0>         0.4798
     67 H32         9.4239    2.2796   -3.1013 H         1 <0>         0.4881
     68 H33         6.7239    1.8637   -5.4879 H         1 <0>         0.4801
     69 H34         8.3428    2.4597   -5.2600 H         1 <0>         0.4806
     70 H35         6.3281    0.7083   -2.0595 H         1 <0>         0.4689
     71 H36         1.4502   -1.6870   -2.4414 H         1 <0>         0.4505
     72 H37         1.2722   -4.4174    1.2277 H         1 <0>         0.4443
@<TRIPOS>BOND
     1    1    2 ar
     2    1    3 ar
     3    2    4 ar
     4    3    6 ar
     5    4    5 ar
     6    4   10 1
     7    5    6 ar
     8    5   24 1
     9    6   35 1
    10    7   15 1
    11    7   30 2
    12    7   34 1
    13    8   23 1
    14    8   25 am
    15    8   31 2
    16    9   26 1
    17    9   27 1
    18    9   28 1
    19   10   16 1
    20   11   13 1
    21   11   17 1
    22   12   15 1
    23   12   17 1
    24   13   25 1
    25   14   16 1
    26   14   24 1
    27   15   25 1
    28   16   18 1
    29   17   19 1
    30   20   21 1
    31   20   22 1
    32   21   23 1
    33   22   28 1
    34   23   29 1
    35   29   35 1
    36   32   35 2
    37   33   35 2
    38    1   36 1
    39    2   37 1
    40    3   38 1
    41   10   39 1
    42   10   40 1
    43   11   41 1
    44   11   42 1
    45   12   43 1
    46   12   44 1
    47   13   45 1
    48   13   46 1
    49   14   47 1
    50   14   48 1
    51   15   49 1
    52   16   50 1
    53   17   51 1
    54   18   52 1
    55   18   53 1
    56   18   54 1
    57   19   55 1
    58   19   56 1
    59   19   57 1
    60   20   58 1
    61   20   59 1
    62   21   60 1
    63   21   61 1
    64   22   62 1
    65   22   63 1
    66   23   64 1
    67   24   65 1
    68   26   66 1
    69   26   67 1
    70   27   68 1
    71   27   69 1
    72   28   70 1
    73   29   71 1
    74   34   72 1
@<TRIPOS>MOLECULE
1dwc_ligand_208
   72    74     0     0     0
SMALL
USER_CHARGES

mmff94s_NoEstat = 79.61
@<TRIPOS>ATOM
      1 C1          3.6731   -6.5760   -1.9164 C.ar      1 <0>        -0.1945
      2 C2          3.8499   -7.1307   -3.1822 C.ar      1 <0>        -0.0294
      3 C3          2.8506   -5.4650   -1.7544 C.ar      1 <0>        -0.0143
      4 C4          3.2001   -6.5782   -4.2952 C.ar      1 <0>        -0.1552
      5 C5          2.3887   -5.4360   -4.1443 C.ar      1 <0>         0.3076
      6 C6          2.2111   -4.9017   -2.8599 C.ar      1 <0>        -0.4908
      7 C7          1.8102   -1.5505    2.3702 C.2       1 <0>         0.5994
      8 C8          2.9466   -1.3973   -0.6457 C.2       1 <0>         0.6462
      9 C9          6.8021   -5.4466   -4.4355 C.cat     1 <0>         0.6305
     10 C10         3.4090   -7.1879   -5.6607 C.3       1 <0>        -0.0319
     11 C11         4.4920   -3.4807    2.0801 C.3       1 <0>        -0.0918
     12 C12         4.1798   -1.0721    2.8769 C.3       1 <0>        -0.0841
     13 C13         4.5658   -2.7774    0.7291 C.3       1 <0>         0.0870
     14 C14         2.0489   -5.2924   -6.5791 C.3       1 <0>         0.2023
     15 C15         3.1125   -1.0286    1.7861 C.3       1 <0>         0.0778
     16 C16         2.2745   -6.8073   -6.6248 C.3       1 <0>        -0.0746
     17 C17         4.5869   -2.5050    3.2643 C.3       1 <0>        -0.0681
     18 C18         2.5890   -7.2717   -8.0443 C.3       1 <0>        -0.0944
     19 C19         5.9882   -2.5079    3.8779 C.3       1 <0>        -0.0918
     20 C20         5.1203   -2.1076   -3.7746 C.3       1 <0>        -0.1192
     21 C21         4.5564   -1.3488   -2.5679 C.3       1 <0>        -0.0916
     22 C22         5.6479   -3.4850   -3.3924 C.3       1 <0>         0.1883
     23 C23         3.4544   -2.1251   -1.8653 C.3       1 <0>         0.1952
     24 N1          1.7320   -4.8675   -5.2287 N.pl3     1 <0>        -0.7670
     25 N2          3.5192   -1.7560    0.5781 N.am      1 <0>        -0.4509
     26 N3          7.3239   -6.0965   -5.5492 N.pl3     1 <0>        -0.8477
     27 N4          6.8782   -6.0650   -3.1922 N.pl3     1 <0>        -0.8633
     28 N5          6.2038   -4.1863   -4.5407 N.pl3     1 <0>        -0.7419
     29 N6          2.2741   -2.2179   -2.7432 N.pl3     1 <0>        -0.8860
     30 O1          1.2492   -1.0925    3.3546 O.2       1 <0>        -0.5199
     31 O2          2.0685   -0.5400   -0.7710 O.2       1 <0>        -0.6131
     32 O3          0.1927   -3.4494   -3.6292 O.2       1 <0>        -0.6576
     33 O4          0.7527   -3.5815   -1.1810 O.2       1 <0>        -0.6482
     34 O5          1.3501   -2.6026    1.6500 O.3       1 <0>        -0.6303
     35 S1          1.1775   -3.5081   -2.5659 S.o2      1 <0>         1.5193
     36 H1          4.1738   -7.0124   -1.0565 H         1 <0>         0.1426
     37 H2          4.4920   -8.0005   -3.2989 H         1 <0>         0.1398
     38 H3          2.7006   -5.0281   -0.7723 H         1 <0>         0.1599
     39 H4          4.3735   -6.8381   -6.0503 H         1 <0>         0.0574
     40 H5          3.4578   -8.2807   -5.5786 H         1 <0>         0.0629
     41 H6          3.5311   -4.0088    2.1410 H         1 <0>         0.0614
     42 H7          5.2694   -4.2509    2.1463 H         1 <0>         0.0593
     43 H8          5.0641   -0.5305    2.5137 H         1 <0>         0.0841
     44 H9          3.8399   -0.5392    3.7741 H         1 <0>         0.0679
     45 H10         5.5312   -2.2723    0.6079 H         1 <0>         0.0826
     46 H11         4.4795   -3.5150   -0.0747 H         1 <0>         0.0383
     47 H12         2.9420   -4.7591   -6.9279 H         1 <0>         0.0556
     48 H13         1.2239   -5.0122   -7.2434 H         1 <0>         0.0415
     49 H14         2.9188    0.0160    1.5141 H         1 <0>         0.0851
     50 H15         1.3531   -7.3101   -6.3012 H         1 <0>         0.0639
     51 H16         3.9047   -2.8651    4.0450 H         1 <0>         0.0584
     52 H17         1.6940   -7.2231   -8.6717 H         1 <0>         0.0401
     53 H18         3.3599   -6.6388   -8.4940 H         1 <0>         0.0440
     54 H19         2.9505   -8.3043   -8.0395 H         1 <0>         0.0459
     55 H20         6.0310   -3.1862    4.7353 H         1 <0>         0.0456
     56 H21         6.7293   -2.8350    3.1425 H         1 <0>         0.0366
     57 H22         6.2606   -1.5045    4.2187 H         1 <0>         0.0474
     58 H23         4.3389   -2.2150   -4.5365 H         1 <0>         0.0800
     59 H24         5.9381   -1.5325   -4.2238 H         1 <0>         0.0681
     60 H25         4.1906   -0.3664   -2.8945 H         1 <0>         0.0740
     61 H26         5.3633   -1.1575   -1.8491 H         1 <0>         0.0631
     62 H27         4.8565   -4.1061   -2.9610 H         1 <0>         0.0970
     63 H28         6.4445   -3.3867   -2.6481 H         1 <0>         0.0725
     64 H29         3.7703   -3.1244   -1.5692 H         1 <0>         0.0839
     65 H30         1.2218   -4.0048   -5.0843 H         1 <0>         0.4531
     66 H31         7.2891   -5.6840   -6.4776 H         1 <0>         0.4798
     67 H32         7.7569   -7.0132   -5.4639 H         1 <0>         0.4881
     68 H33         6.5067   -5.6181   -2.3575 H         1 <0>         0.4801
     69 H34         7.3085   -6.9804   -3.0849 H         1 <0>         0.4806
     70 H35         6.1629   -3.7578   -5.4666 H         1 <0>         0.4689
     71 H36         1.9407   -1.3323   -3.1385 H         1 <0>         0.4505
     72 H37         0.5099   -2.9556    2.0129 H         1 <0>         0.4443
@<TRIPOS>BOND
     1    1    2 ar
     2    1    3 ar
     3    2    4 ar
     4    3    6 ar
     5    4    5 ar
     6    4   10 1
     7    5    6 ar
     8    5   24 1
     9    6   35 1
    10    7   15 1
    11    7   30 2
    12    7   34 1
    13    8   23 1
    14    8   25 am
    15    8   31 2
    16    9   26 1
    17    9   27 1
    18    9   28 1
    19   10   16 1
    20   11   13 1
    21   11   17 1
    22   12   15 1
    23   12   17 1
    24   13   25 1
    25   14   16 1
    26   14   24 1
    27   15   25 1
    28   16   18 1
    29   17   19 1
    30   20   21 1
    31   20   22 1
    32   21   23 1
    33   22   28 1
    34   23   29 1
    35   29   35 1
    36   32   35 2
    37   33   35 2
    38    1   36 1
    39    2   37 1
    40    3   38 1
    41   10   39 1
    42   10   40 1
    43   11   41 1
    44   11   42 1
    45   12   43 1
    46   12   44 1
    47   13   45 1
    48   13   46 1
    49   14   47 1
    50   14   48 1
    51   15   49 1
    52   16   50 1
    53   17   51 1
    54   18   52 1
    55   18   53 1
    56   18   54 1
    57   19   55 1
    58   19   56 1
    59   19   57 1
    60   20   58 1
    61   20   59 1
    62   21   60 1
    63   21   61 1
    64   22   62 1
    65   22   63 1
    66   23   64 1
    67   24   65 1
    68   26   66 1
    69   26   67 1
    70   27   68 1
    71   27   69 1
    72   28   70 1
    73   29   71 1
    74   34   72 1
@<TRIPOS>MOLECULE
1dwc_ligand_209
   72    74     0     0     0
SMALL
USER_CHARGES

mmff94s_NoEstat = 79.61
@<TRIPOS>ATOM
      1 C1         -3.5298   -6.2535    4.3510 C.ar      1 <0>        -0.1945
      2 C2         -4.3901   -6.3642    3.2606 C.ar      1 <0>        -0.0294
      3 C3         -2.9628   -5.0220    4.6653 C.ar      1 <0>        -0.0143
      4 C4         -4.6918   -5.2398    2.4790 C.ar      1 <0>        -0.1552
      5 C5         -4.0992   -3.9956    2.7730 C.ar      1 <0>         0.3076
      6 C6         -3.2482   -3.9013    3.8837 C.ar      1 <0>        -0.4908
      7 C7          2.7704   -1.7839    6.0383 C.2       1 <0>         0.5994
      8 C8          0.8654   -1.4427    3.2413 C.2       1 <0>         0.6462
      9 C9         -0.8941   -7.9715   -0.0876 C.cat     1 <0>         0.6305
     10 C10        -5.6204   -5.3796    1.2965 C.3       1 <0>        -0.0319
     11 C11         0.5768    1.2733    5.7022 C.3       1 <0>        -0.0918
     12 C12         0.6567   -0.8944    6.9517 C.3       1 <0>        -0.0841
     13 C13         1.2923    0.6145    4.5297 C.3       1 <0>         0.0870
     14 C14        -5.1062   -2.9837    0.7664 C.3       1 <0>         0.2023
     15 C15         1.2950   -1.5759    5.7384 C.3       1 <0>         0.0778
     16 C16        -6.2232   -4.0248    0.8929 C.3       1 <0>        -0.0746
     17 C17         0.9641    0.6073    7.0251 C.3       1 <0>        -0.0681
     18 C18        -7.0091   -4.1462   -0.4097 C.3       1 <0>        -0.0944
     19 C19         0.2272    1.2555    8.1955 C.3       1 <0>        -0.0918
     20 C20        -0.5404   -4.8511    2.0458 C.3       1 <0>        -0.1192
     21 C21         0.3004   -3.5693    2.0376 C.3       1 <0>        -0.0916
     22 C22        -0.1768   -5.7847    0.8978 C.3       1 <0>         0.1883
     23 C23        -0.0078   -2.6730    3.2260 C.3       1 <0>         0.1952
     24 N1         -4.3801   -2.8644    2.0167 N.pl3     1 <0>        -0.7670
     25 N2          1.0754   -0.8353    4.4846 N.am      1 <0>        -0.4509
     26 N3         -1.6898   -9.1122   -0.0609 N.pl3     1 <0>        -0.8477
     27 N4          0.0239   -7.8094   -1.1196 N.pl3     1 <0>        -0.8633
     28 N5         -0.9984   -6.9865    0.9003 N.pl3     1 <0>        -0.7419
     29 N6         -1.3760   -2.1385    3.1042 N.pl3     1 <0>        -0.8860
     30 O1          3.6669   -1.0191    5.7147 O.2       1 <0>        -0.5199
     31 O2          1.3411   -1.0305    2.1799 O.2       1 <0>        -0.6131
     32 O3         -3.5166   -1.3454    4.2968 O.2       1 <0>        -0.6576
     33 O4         -1.7865   -2.6277    5.5955 O.2       1 <0>        -0.6482
     34 O5          2.9625   -2.9419    6.7160 O.3       1 <0>        -0.6303
     35 S1         -2.5018   -2.3799    4.3583 S.o2      1 <0>         1.5193
     36 H1         -3.3049   -7.1268    4.9571 H         1 <0>         0.1426
     37 H2         -4.8309   -7.3297    3.0242 H         1 <0>         0.1398
     38 H3         -2.2961   -4.9225    5.5159 H         1 <0>         0.1599
     39 H4         -5.0522   -5.8078    0.4610 H         1 <0>         0.0574
     40 H5         -6.4331   -6.0751    1.5397 H         1 <0>         0.0629
     41 H6          0.8264    2.3406    5.7308 H         1 <0>         0.0614
     42 H7         -0.5083    1.2000    5.5545 H         1 <0>         0.0593
     43 H8         -0.4322   -1.0268    6.8892 H         1 <0>         0.0841
     44 H9          0.9781   -1.3826    7.8805 H         1 <0>         0.0679
     45 H10         0.9628    1.0810    3.5955 H         1 <0>         0.0826
     46 H11         2.3746    0.7760    4.6039 H         1 <0>         0.0383
     47 H12        -4.4091   -3.2616   -0.0338 H         1 <0>         0.0556
     48 H13        -5.5272   -2.0065    0.5046 H         1 <0>         0.0415
     49 H14         0.8726   -2.5816    5.6469 H         1 <0>         0.0851
     50 H15        -6.9191   -3.7005    1.6784 H         1 <0>         0.0639
     51 H16         2.0391    0.7469    7.1933 H         1 <0>         0.0584
     52 H17        -7.6317   -3.2604   -0.5670 H         1 <0>         0.0401
     53 H18        -6.3292   -4.2450   -1.2612 H         1 <0>         0.0440
     54 H19        -7.6604   -5.0250   -0.3851 H         1 <0>         0.0459
     55 H20        -0.3233    0.5026    8.7675 H         1 <0>         0.0456
     56 H21         0.9340    1.7505    8.8682 H         1 <0>         0.0366
     57 H22        -0.4858    2.0027    7.8342 H         1 <0>         0.0474
     58 H23        -0.4002   -5.3741    2.9994 H         1 <0>         0.0800
     59 H24        -1.6035   -4.5964    1.9658 H         1 <0>         0.0681
     60 H25         0.1357   -3.0322    1.0943 H         1 <0>         0.0740
     61 H26         1.3654   -3.8328    2.0643 H         1 <0>         0.0631
     62 H27         0.8739   -6.0869    0.9513 H         1 <0>         0.0970
     63 H28        -0.3350   -5.2785   -0.0598 H         1 <0>         0.0725
     64 H29         0.1003   -3.1895    4.1787 H         1 <0>         0.0839
     65 H30        -3.8731   -2.0116    2.2195 H         1 <0>         0.4531
     66 H31        -2.3726   -9.2741    0.6745 H         1 <0>         0.4798
     67 H32        -1.6070   -9.8240   -0.7830 H         1 <0>         0.4881
     68 H33         0.6213   -6.9877   -1.1696 H         1 <0>         0.4801
     69 H34         0.1212   -8.5082   -1.8524 H         1 <0>         0.4806
     70 H35        -1.6814   -7.1337    1.6450 H         1 <0>         0.4689
     71 H36        -1.4850   -1.3266    2.4871 H         1 <0>         0.4505
     72 H37         3.9102   -3.0955    6.9177 H         1 <0>         0.4443
@<TRIPOS>BOND
     1    1    2 ar
     2    1    3 ar
     3    2    4 ar
     4    3    6 ar
     5    4    5 ar
     6    4   10 1
     7    5    6 ar
     8    5   24 1
     9    6   35 1
    10    7   15 1
    11    7   30 2
    12    7   34 1
    13    8   23 1
    14    8   25 am
    15    8   31 2
    16    9   26 1
    17    9   27 1
    18    9   28 1
    19   10   16 1
    20   11   13 1
    21   11   17 1
    22   12   15 1
    23   12   17 1
    24   13   25 1
    25   14   16 1
    26   14   24 1
    27   15   25 1
    28   16   18 1
    29   17   19 1
    30   20   21 1
    31   20   22 1
    32   21   23 1
    33   22   28 1
    34   23   29 1
    35   29   35 1
    36   32   35 2
    37   33   35 2
    38    1   36 1
    39    2   37 1
    40    3   38 1
    41   10   39 1
    42   10   40 1
    43   11   41 1
    44   11   42 1
    45   12   43 1
    46   12   44 1
    47   13   45 1
    48   13   46 1
    49   14   47 1
    50   14   48 1
    51   15   49 1
    52   16   50 1
    53   17   51 1
    54   18   52 1
    55   18   53 1
    56   18   54 1
    57   19   55 1
    58   19   56 1
    59   19   57 1
    60   20   58 1
    61   20   59 1
    62   21   60 1
    63   21   61 1
    64   22   62 1
    65   22   63 1
    66   23   64 1
    67   24   65 1
    68   26   66 1
    69   26   67 1
    70   27   68 1
    71   27   69 1
    72   28   70 1
    73   29   71 1
    74   34   72 1
@<TRIPOS>MOLECULE
1dwc_ligand_210
   72    74     0     0     0
SMALL
USER_CHARGES

mmff94s_NoEstat = 79.66
@<TRIPOS>ATOM
      1 C1         -0.5523    1.6744    5.9041 C.ar      1 <0>        -0.1945
      2 C2         -0.9694    2.6552    5.0066 C.ar      1 <0>        -0.0294
      3 C3         -0.9569    0.3546    5.7269 C.ar      1 <0>        -0.0143
      4 C4         -1.7923    2.3195    3.9220 C.ar      1 <0>        -0.1552
      5 C5         -2.2299    0.9909    3.7521 C.ar      1 <0>         0.3076
      6 C6         -1.7869    0.0155    4.6571 C.ar      1 <0>        -0.4908
      7 C7          4.0428   -2.6510    3.1279 C.2       1 <0>         0.5994
      8 C8          0.8654   -1.4427    3.2413 C.2       1 <0>         0.6462
      9 C9         -0.6326   -5.9229   -1.4626 C.cat     1 <0>         0.6305
     10 C10        -2.2407    3.3967    2.9635 C.3       1 <0>        -0.0319
     11 C11         3.0349   -0.4758    6.0475 C.3       1 <0>        -0.0918
     12 C12         3.4817   -2.8819    5.5206 C.3       1 <0>        -0.0841
     13 C13         2.5314   -0.2662    4.6251 C.3       1 <0>         0.0870
     14 C14        -3.6561    1.6489    1.8554 C.3       1 <0>         0.2023
     15 C15         2.8926   -2.6899    4.1206 C.3       1 <0>         0.0778
     16 C16        -2.6763    2.8021    1.6150 C.3       1 <0>        -0.0746
     17 C17         4.0802   -1.5931    6.1000 C.3       1 <0>        -0.0681
     18 C18        -3.2993    3.8738    0.7246 C.3       1 <0>        -0.0944
     19 C19         4.5654   -1.8157    7.5311 C.3       1 <0>        -0.0918
     20 C20         0.0249   -2.8727    0.7002 C.3       1 <0>        -0.1192
     21 C21         0.3004   -3.5693    2.0376 C.3       1 <0>        -0.0916
     22 C22         0.2602   -3.7963   -0.4886 C.3       1 <0>         0.1883
     23 C23        -0.0078   -2.6730    3.2260 C.3       1 <0>         0.1952
     24 N1         -3.0449    0.6290    2.6865 N.pl3     1 <0>        -0.7670
     25 N2          2.0252   -1.5038    4.0223 N.am      1 <0>        -0.4509
     26 N3         -1.4804   -7.0239   -1.4014 N.pl3     1 <0>        -0.8477
     27 N4          0.2178   -5.7819   -2.5539 N.pl3     1 <0>        -0.8633
     28 N5         -0.6182   -4.9567   -0.4508 N.pl3     1 <0>        -0.7419
     29 N6         -1.3760   -2.1385    3.1042 N.pl3     1 <0>        -0.8860
     30 O1          4.5855   -1.6340    2.7222 O.2       1 <0>        -0.5199
     31 O2          0.5240   -0.4555    2.5844 O.2       1 <0>        -0.6131
     32 O3         -1.7140   -2.3916    5.6449 O.2       1 <0>        -0.6576
     33 O4         -3.6601   -1.7094    4.2056 O.2       1 <0>        -0.6482
     34 O5          4.3885   -3.9048    2.7464 O.3       1 <0>        -0.6303
     35 S1         -2.2397   -1.6774    4.4970 S.o2      1 <0>         1.5193
     36 H1          0.0908    1.9391    6.7389 H         1 <0>         0.1426
     37 H2         -0.6459    3.6833    5.1512 H         1 <0>         0.1398
     38 H3         -0.6333   -0.4189    6.4161 H         1 <0>         0.1599
     39 H4         -3.0724    3.9441    3.4249 H         1 <0>         0.0574
     40 H5         -1.4243    4.1094    2.7937 H         1 <0>         0.0629
     41 H6          3.4643    0.4595    6.4257 H         1 <0>         0.0614
     42 H7          2.1893   -0.7290    6.6997 H         1 <0>         0.0593
     43 H8          2.6805   -3.2276    6.1882 H         1 <0>         0.0841
     44 H9          4.2439   -3.6714    5.5123 H         1 <0>         0.0679
     45 H10         1.7550    0.5058    4.6255 H         1 <0>         0.0826
     46 H11         3.3431    0.0962    3.9827 H         1 <0>         0.0383
     47 H12        -4.5696    2.0142    2.3409 H         1 <0>         0.0556
     48 H13        -3.9536    1.1996    0.9014 H         1 <0>         0.0415
     49 H14         2.3173   -3.5850    3.8636 H         1 <0>         0.0851
     50 H15        -1.7894    2.4087    1.1001 H         1 <0>         0.0639
     51 H16         4.9487   -1.2974    5.4988 H         1 <0>         0.0584
     52 H17        -3.3831    3.5161   -0.3060 H         1 <0>         0.0401
     53 H18        -4.3001    4.1356    1.0809 H         1 <0>         0.0440
     54 H19        -2.6852    4.7793    0.7260 H         1 <0>         0.0459
     55 H20         4.4326   -2.8615    7.8238 H         1 <0>         0.0456
     56 H21         5.6267   -1.5650    7.6207 H         1 <0>         0.0366
     57 H22         4.0032   -1.1886    8.2295 H         1 <0>         0.0474
     58 H23        -1.0105   -2.5120    0.6824 H         1 <0>         0.0800
     59 H24         0.6776   -1.9980    0.5976 H         1 <0>         0.0681
     60 H25         1.3460   -3.9033    2.0652 H         1 <0>         0.0740
     61 H26        -0.3175   -4.4733    2.1109 H         1 <0>         0.0631
     62 H27         1.2957   -4.1503   -0.5157 H         1 <0>         0.0970
     63 H28         0.0608   -3.2615   -1.4226 H         1 <0>         0.0725
     64 H29         0.1003   -3.1895    4.1787 H         1 <0>         0.0839
     65 H30        -3.3945   -0.3205    2.6487 H         1 <0>         0.4531
     66 H31        -2.1173   -7.1693   -0.6226 H         1 <0>         0.4798
     67 H32        -1.4841   -7.7223   -2.1412 H         1 <0>         0.4881
     68 H33         0.8505   -4.9892   -2.6303 H         1 <0>         0.4801
     69 H34         0.2286   -6.4677   -3.3050 H         1 <0>         0.4806
     70 H35        -1.2539   -5.0876    0.3375 H         1 <0>         0.4689
     71 H36        -1.6042   -1.6955    2.2078 H         1 <0>         0.4505
     72 H37         5.1292   -3.9010    2.1032 H         1 <0>         0.4443
@<TRIPOS>BOND
     1    1    2 ar
     2    1    3 ar
     3    2    4 ar
     4    3    6 ar
     5    4    5 ar
     6    4   10 1
     7    5    6 ar
     8    5   24 1
     9    6   35 1
    10    7   15 1
    11    7   30 2
    12    7   34 1
    13    8   23 1
    14    8   25 am
    15    8   31 2
    16    9   26 1
    17    9   27 1
    18    9   28 1
    19   10   16 1
    20   11   13 1
    21   11   17 1
    22   12   15 1
    23   12   17 1
    24   13   25 1
    25   14   16 1
    26   14   24 1
    27   15   25 1
    28   16   18 1
    29   17   19 1
    30   20   21 1
    31   20   22 1
    32   21   23 1
    33   22   28 1
    34   23   29 1
    35   29   35 1
    36   32   35 2
    37   33   35 2
    38    1   36 1
    39    2   37 1
    40    3   38 1
    41   10   39 1
    42   10   40 1
    43   11   41 1
    44   11   42 1
    45   12   43 1
    46   12   44 1
    47   13   45 1
    48   13   46 1
    49   14   47 1
    50   14   48 1
    51   15   49 1
    52   16   50 1
    53   17   51 1
    54   18   52 1
    55   18   53 1
    56   18   54 1
    57   19   55 1
    58   19   56 1
    59   19   57 1
    60   20   58 1
    61   20   59 1
    62   21   60 1
    63   21   61 1
    64   22   62 1
    65   22   63 1
    66   23   64 1
    67   24   65 1
    68   26   66 1
    69   26   67 1
    70   27   68 1
    71   27   69 1
    72   28   70 1
    73   29   71 1
    74   34   72 1
@<TRIPOS>MOLECULE
1dwc_ligand_211
   72    74     0     0     0
SMALL
USER_CHARGES

mmff94s_NoEstat = 79.67
@<TRIPOS>ATOM
      1 C1          3.0864   -6.8132   -1.6121 C.ar      1 <0>        -0.1945
      2 C2          2.0235   -6.9752   -0.7260 C.ar      1 <0>        -0.0294
      3 C3          3.0725   -5.7656   -2.5283 C.ar      1 <0>        -0.0143
      4 C4          0.9399   -6.0855   -0.7488 C.ar      1 <0>        -0.1552
      5 C5          0.9045   -5.0397   -1.6925 C.ar      1 <0>         0.3076
      6 C6          1.9909   -4.8841   -2.5656 C.ar      1 <0>        -0.4908
      7 C7          2.4038   -0.4910    2.4030 C.2       1 <0>         0.5994
      8 C8          2.9466   -1.3973   -0.6457 C.2       1 <0>         0.6462
      9 C9          4.1200    2.2277   -5.6019 C.cat     1 <0>         0.6305
     10 C10        -0.2069   -6.2806    0.2139 C.3       1 <0>        -0.0319
     11 C11         3.9178   -3.4419    2.3602 C.3       1 <0>        -0.0918
     12 C12         4.8012   -1.0545    2.5913 C.3       1 <0>        -0.0841
     13 C13         4.0430   -3.0960    0.8803 C.3       1 <0>         0.0870
     14 C14        -1.3613   -4.3977   -0.9727 C.3       1 <0>         0.2023
     15 C15         3.6790   -0.7248    1.6100 C.3       1 <0>         0.0778
     16 C16        -1.0112   -4.9842    0.3988 C.3       1 <0>        -0.0746
     17 C17         4.6242   -2.4243    3.2705 C.3       1 <0>        -0.0681
     18 C18        -2.2700   -5.2387    1.2234 C.3       1 <0>        -0.0944
     19 C19         5.9763   -2.9527    3.7531 C.3       1 <0>        -0.0918
     20 C20         4.0666    0.0061   -3.0917 C.3       1 <0>        -0.1192
     21 C21         4.5564   -1.3488   -2.5679 C.3       1 <0>        -0.0916
     22 C22         5.1498    0.7503   -3.8628 C.3       1 <0>         0.1883
     23 C23         3.4544   -2.1251   -1.8653 C.3       1 <0>         0.1952
     24 N1         -0.1556   -4.1426   -1.7381 N.pl3     1 <0>        -0.7670
     25 N2          3.5192   -1.7560    0.5781 N.am      1 <0>        -0.4509
     26 N3          3.6785    3.4764   -6.0269 N.pl3     1 <0>        -0.8477
     27 N4          3.9991    1.1384   -6.4580 N.pl3     1 <0>        -0.8633
     28 N5          4.6819    2.0459   -4.3336 N.pl3     1 <0>        -0.7419
     29 N6          2.2741   -2.2179   -2.7432 N.pl3     1 <0>        -0.8860
     30 O1          2.2729    0.3351    3.2940 O.2       1 <0>        -0.5199
     31 O2          2.0685   -0.5400   -0.7710 O.2       1 <0>        -0.6131
     32 O3          3.2466   -3.7694   -4.5546 O.2       1 <0>        -0.6576
     33 O4          0.7526   -3.5048   -4.3692 O.2       1 <0>        -0.6482
     34 O5          1.4223   -1.3294    1.9894 O.3       1 <0>        -0.6303
     35 S1          2.0591   -3.5786   -3.7438 S.o2      1 <0>         1.5193
     36 H1          3.9266   -7.5016   -1.5854 H         1 <0>         0.1426
     37 H2          2.0443   -7.7948   -0.0116 H         1 <0>         0.1398
     38 H3          3.8977   -5.6260   -3.2193 H         1 <0>         0.1599
     39 H4         -0.8529   -7.0772   -0.1766 H         1 <0>         0.0574
     40 H5          0.1751   -6.6074    1.1889 H         1 <0>         0.0629
     41 H6          2.8510   -3.4591    2.6203 H         1 <0>         0.0614
     42 H7          4.2939   -4.4553    2.5428 H         1 <0>         0.0593
     43 H8          5.7524   -1.0436    2.0413 H         1 <0>         0.0841
     44 H9          4.8832   -0.2779    3.3625 H         1 <0>         0.0679
     45 H10         5.0934   -3.1114    0.5668 H         1 <0>         0.0826
     46 H11         3.5122   -3.8428    0.2819 H         1 <0>         0.0383
     47 H12        -2.0084   -5.0849   -1.5319 H         1 <0>         0.0556
     48 H13        -1.9126   -3.4583   -0.8533 H         1 <0>         0.0415
     49 H14         3.9015    0.2290    1.1168 H         1 <0>         0.0851
     50 H15        -0.3913   -4.2593    0.9436 H         1 <0>         0.0639
     51 H16         4.0032   -2.2947    4.1661 H         1 <0>         0.0584
     52 H17        -2.7070   -4.2936    1.5593 H         1 <0>         0.0401
     53 H18        -3.0178   -5.7721    0.6290 H         1 <0>         0.0440
     54 H19        -2.0361   -5.8426    2.1053 H         1 <0>         0.0459
     55 H20         5.8782   -3.4157    4.7396 H         1 <0>         0.0456
     56 H21         6.3665   -3.7022    3.0580 H         1 <0>         0.0366
     57 H22         6.7034   -2.1384    3.8257 H         1 <0>         0.0474
     58 H23         3.1961   -0.1462   -3.7411 H         1 <0>         0.0800
     59 H24         3.7428    0.6319   -2.2522 H         1 <0>         0.0681
     60 H25         5.4094   -1.1917   -1.8946 H         1 <0>         0.0740
     61 H26         4.9285   -1.9502   -3.4070 H         1 <0>         0.0631
     62 H27         5.4874    0.1718   -4.7286 H         1 <0>         0.0970
     63 H28         6.0148    0.9268   -3.2156 H         1 <0>         0.0725
     64 H29         3.7703   -3.1244   -1.5692 H         1 <0>         0.0839
     65 H30        -0.1728   -3.4550   -2.4811 H         1 <0>         0.4531
     66 H31         3.7448    4.3001   -5.4349 H         1 <0>         0.4798
     67 H32         3.2704    3.5997   -6.9507 H         1 <0>         0.4881
     68 H33         4.3116    0.2115   -6.1792 H         1 <0>         0.4801
     69 H34         3.5958    1.2405   -7.3862 H         1 <0>         0.4806
     70 H35         4.7573    2.8644   -3.7278 H         1 <0>         0.4689
     71 H36         1.4502   -1.6870   -2.4414 H         1 <0>         0.4505
     72 H37         0.5902   -1.1952    2.4913 H         1 <0>         0.4443
@<TRIPOS>BOND
     1    1    2 ar
     2    1    3 ar
     3    2    4 ar
     4    3    6 ar
     5    4    5 ar
     6    4   10 1
     7    5    6 ar
     8    5   24 1
     9    6   35 1
    10    7   15 1
    11    7   30 2
    12    7   34 1
    13    8   23 1
    14    8   25 am
    15    8   31 2
    16    9   26 1
    17    9   27 1
    18    9   28 1
    19   10   16 1
    20   11   13 1
    21   11   17 1
    22   12   15 1
    23   12   17 1
    24   13   25 1
    25   14   16 1
    26   14   24 1
    27   15   25 1
    28   16   18 1
    29   17   19 1
    30   20   21 1
    31   20   22 1
    32   21   23 1
    33   22   28 1
    34   23   29 1
    35   29   35 1
    36   32   35 2
    37   33   35 2
    38    1   36 1
    39    2   37 1
    40    3   38 1
    41   10   39 1
    42   10   40 1
    43   11   41 1
    44   11   42 1
    45   12   43 1
    46   12   44 1
    47   13   45 1
    48   13   46 1
    49   14   47 1
    50   14   48 1
    51   15   49 1
    52   16   50 1
    53   17   51 1
    54   18   52 1
    55   18   53 1
    56   18   54 1
    57   19   55 1
    58   19   56 1
    59   19   57 1
    60   20   58 1
    61   20   59 1
    62   21   60 1
    63   21   61 1
    64   22   62 1
    65   22   63 1
    66   23   64 1
    67   24   65 1
    68   26   66 1
    69   26   67 1
    70   27   68 1
    71   27   69 1
    72   28   70 1
    73   29   71 1
    74   34   72 1
@<TRIPOS>MOLECULE
1dwc_ligand_212
   72    74     0     0     0
SMALL
USER_CHARGES

mmff94s_NoEstat = 79.70
@<TRIPOS>ATOM
      1 C1         -0.5523    1.6744    5.9041 C.ar      1 <0>        -0.1945
      2 C2         -0.9694    2.6552    5.0066 C.ar      1 <0>        -0.0294
      3 C3         -0.9569    0.3546    5.7269 C.ar      1 <0>        -0.0143
      4 C4         -1.7923    2.3195    3.9220 C.ar      1 <0>        -0.1552
      5 C5         -2.2299    0.9909    3.7521 C.ar      1 <0>         0.3076
      6 C6         -1.7869    0.0155    4.6571 C.ar      1 <0>        -0.4908
      7 C7          2.5084    0.3236    5.6389 C.2       1 <0>         0.5994
      8 C8          0.8654   -1.4427    3.2413 C.2       1 <0>         0.6462
      9 C9         -1.1012   -7.8073    4.3609 C.cat     1 <0>         0.6305
     10 C10        -2.2407    3.3967    2.9635 C.3       1 <0>        -0.0319
     11 C11         3.7918   -3.1079    4.7178 C.3       1 <0>        -0.0918
     12 C12         4.3679   -0.6960    4.3756 C.3       1 <0>        -0.0841
     13 C13         2.3136   -2.7413    4.7550 C.3       1 <0>         0.0870
     14 C14        -3.6561    1.6489    1.8554 C.3       1 <0>         0.2023
     15 C15         2.8792   -0.3425    4.3241 C.3       1 <0>         0.0778
     16 C16        -2.6763    2.8021    1.6150 C.3       1 <0>        -0.0746
     17 C17         4.6572   -1.9474    5.2154 C.3       1 <0>        -0.0681
     18 C18        -3.2993    3.8738    0.7246 C.3       1 <0>        -0.0944
     19 C19         6.1396   -2.3107    5.1549 C.3       1 <0>        -0.0918
     20 C20        -0.5404   -4.8511    2.0458 C.3       1 <0>        -0.1192
     21 C21         0.3004   -3.5693    2.0376 C.3       1 <0>        -0.0916
     22 C22        -0.3597   -5.6492    3.3311 C.3       1 <0>         0.1883
     23 C23        -0.0078   -2.6730    3.2260 C.3       1 <0>         0.1952
     24 N1         -3.0449    0.6290    2.6865 N.pl3     1 <0>        -0.7670
     25 N2          2.0252   -1.5038    4.0223 N.am      1 <0>        -0.4509
     26 N3         -1.8613   -8.9717    4.3243 N.pl3     1 <0>        -0.8477
     27 N4         -0.2834   -7.5659    5.4595 N.pl3     1 <0>        -0.8633
     28 N5         -1.1428   -6.8764    3.3174 N.pl3     1 <0>        -0.7419
     29 N6         -1.3760   -2.1385    3.1042 N.pl3     1 <0>        -0.8860
     30 O1          2.0403   -0.2521    6.6099 O.2       1 <0>        -0.5199
     31 O2          0.5240   -0.4555    2.5844 O.2       1 <0>        -0.6131
     32 O3         -1.7140   -2.3916    5.6449 O.2       1 <0>        -0.6576
     33 O4         -3.6601   -1.7094    4.2056 O.2       1 <0>        -0.6482
     34 O5          2.7656    1.6536    5.5910 O.3       1 <0>        -0.6303
     35 S1         -2.2397   -1.6774    4.4970 S.o2      1 <0>         1.5193
     36 H1          0.0908    1.9391    6.7389 H         1 <0>         0.1426
     37 H2         -0.6459    3.6833    5.1512 H         1 <0>         0.1398
     38 H3         -0.6333   -0.4189    6.4161 H         1 <0>         0.1599
     39 H4         -3.0724    3.9441    3.4249 H         1 <0>         0.0574
     40 H5         -1.4243    4.1094    2.7937 H         1 <0>         0.0629
     41 H6          3.9641   -3.9977    5.3349 H         1 <0>         0.0614
     42 H7          4.0768   -3.3683    3.6904 H         1 <0>         0.0593
     43 H8          4.7163   -0.8743    3.3490 H         1 <0>         0.0841
     44 H9          4.9510    0.1500    4.7611 H         1 <0>         0.0679
     45 H10         1.7240   -3.5716    4.3527 H         1 <0>         0.0826
     46 H11         1.9849   -2.5868    5.7898 H         1 <0>         0.0383
     47 H12        -4.5696    2.0142    2.3409 H         1 <0>         0.0556
     48 H13        -3.9536    1.1996    0.9014 H         1 <0>         0.0415
     49 H14         2.7341    0.4259    3.5582 H         1 <0>         0.0851
     50 H15        -1.7894    2.4087    1.1001 H         1 <0>         0.0639
     51 H16         4.4098   -1.7422    6.2643 H         1 <0>         0.0584
     52 H17        -3.3831    3.5161   -0.3060 H         1 <0>         0.0401
     53 H18        -4.3001    4.1356    1.0809 H         1 <0>         0.0440
     54 H19        -2.6852    4.7793    0.7260 H         1 <0>         0.0459
     55 H20         6.6929   -1.5714    4.5681 H         1 <0>         0.0456
     56 H21         6.5688   -2.3436    6.1607 H         1 <0>         0.0366
     57 H22         6.2762   -3.2916    4.6898 H         1 <0>         0.0474
     58 H23        -1.5993   -4.5943    1.9218 H         1 <0>         0.0800
     59 H24        -0.2563   -5.4850    1.1980 H         1 <0>         0.0681
     60 H25         0.1357   -3.0322    1.0943 H         1 <0>         0.0740
     61 H26         1.3654   -3.8328    2.0643 H         1 <0>         0.0631
     62 H27        -0.6565   -5.0623    4.2062 H         1 <0>         0.0970
     63 H28         0.6914   -5.9295    3.4522 H         1 <0>         0.0725
     64 H29         0.1003   -3.1895    4.1787 H         1 <0>         0.0839
     65 H30        -3.3945   -0.3205    2.6487 H         1 <0>         0.4531
     66 H31        -2.4745   -9.1890    3.5432 H         1 <0>         0.4798
     67 H32        -1.8257   -9.6431    5.0878 H         1 <0>         0.4881
     68 H33         0.2854   -6.7248    5.5187 H         1 <0>         0.4801
     69 H34        -0.2317   -8.2251    6.2325 H         1 <0>         0.4806
     70 H35        -1.7526   -7.0814    2.5245 H         1 <0>         0.4689
     71 H36        -1.6042   -1.6955    2.2078 H         1 <0>         0.4505
     72 H37         2.5309    2.1027    6.4310 H         1 <0>         0.4443
@<TRIPOS>BOND
     1    1    2 ar
     2    1    3 ar
     3    2    4 ar
     4    3    6 ar
     5    4    5 ar
     6    4   10 1
     7    5    6 ar
     8    5   24 1
     9    6   35 1
    10    7   15 1
    11    7   30 2
    12    7   34 1
    13    8   23 1
    14    8   25 am
    15    8   31 2
    16    9   26 1
    17    9   27 1
    18    9   28 1
    19   10   16 1
    20   11   13 1
    21   11   17 1
    22   12   15 1
    23   12   17 1
    24   13   25 1
    25   14   16 1
    26   14   24 1
    27   15   25 1
    28   16   18 1
    29   17   19 1
    30   20   21 1
    31   20   22 1
    32   21   23 1
    33   22   28 1
    34   23   29 1
    35   29   35 1
    36   32   35 2
    37   33   35 2
    38    1   36 1
    39    2   37 1
    40    3   38 1
    41   10   39 1
    42   10   40 1
    43   11   41 1
    44   11   42 1
    45   12   43 1
    46   12   44 1
    47   13   45 1
    48   13   46 1
    49   14   47 1
    50   14   48 1
    51   15   49 1
    52   16   50 1
    53   17   51 1
    54   18   52 1
    55   18   53 1
    56   18   54 1
    57   19   55 1
    58   19   56 1
    59   19   57 1
    60   20   58 1
    61   20   59 1
    62   21   60 1
    63   21   61 1
    64   22   62 1
    65   22   63 1
    66   23   64 1
    67   24   65 1
    68   26   66 1
    69   26   67 1
    70   27   68 1
    71   27   69 1
    72   28   70 1
    73   29   71 1
    74   34   72 1
@<TRIPOS>MOLECULE
1dwc_ligand_213
   72    74     0     0     0
SMALL
USER_CHARGES

mmff94s_NoEstat = 79.70
@<TRIPOS>ATOM
      1 C1          4.6798   -6.2332   -3.8465 C.ar      1 <0>        -0.1945
      2 C2          5.1305   -5.8526   -5.1088 C.ar      1 <0>        -0.0294
      3 C3          3.6044   -5.5688   -3.2643 C.ar      1 <0>        -0.0143
      4 C4          4.5037   -4.8053   -5.7990 C.ar      1 <0>        -0.1552
      5 C5          3.4330   -4.1086   -5.2043 C.ar      1 <0>         0.3076
      6 C6          2.9841   -4.5166   -3.9399 C.ar      1 <0>        -0.4908
      7 C7          1.8102   -1.5505    2.3702 C.2       1 <0>         0.5994
      8 C8          2.9466   -1.3973   -0.6457 C.2       1 <0>         0.6462
      9 C9          6.5039    2.1705   -2.3080 C.cat     1 <0>         0.6305
     10 C10         5.0101   -4.4014   -7.1630 C.3       1 <0>        -0.0319
     11 C11         4.4920   -3.4807    2.0801 C.3       1 <0>        -0.0918
     12 C12         4.1798   -1.0721    2.8769 C.3       1 <0>        -0.0841
     13 C13         4.5658   -2.7774    0.7291 C.3       1 <0>         0.0870
     14 C14         3.3573   -2.5178   -7.0826 C.3       1 <0>         0.2023
     15 C15         3.1125   -1.0286    1.7861 C.3       1 <0>         0.0778
     16 C16         3.9391   -3.6350   -7.9550 C.3       1 <0>        -0.0746
     17 C17         4.5869   -2.5050    3.2643 C.3       1 <0>        -0.0681
     18 C18         4.5192   -3.0731   -9.2500 C.3       1 <0>        -0.0944
     19 C19         5.9882   -2.5079    3.8779 C.3       1 <0>        -0.0918
     20 C20         4.0666    0.0061   -3.0917 C.3       1 <0>        -0.1192
     21 C21         4.5564   -1.3488   -2.5679 C.3       1 <0>        -0.0916
     22 C22         5.1498    0.7503   -3.8628 C.3       1 <0>         0.1883
     23 C23         3.4544   -2.1251   -1.8653 C.3       1 <0>         0.1952
     24 N1          2.7923   -3.0675   -5.8648 N.pl3     1 <0>        -0.7670
     25 N2          3.5192   -1.7560    0.5781 N.am      1 <0>        -0.4509
     26 N3          7.6371    2.3758   -1.5279 N.pl3     1 <0>        -0.8477
     27 N4          5.5279    3.1599   -2.3593 N.pl3     1 <0>        -0.8633
     28 N5          6.3266    0.9918   -3.0404 N.pl3     1 <0>        -0.7419
     29 N6          2.2741   -2.2179   -2.7432 N.pl3     1 <0>        -0.8860
     30 O1          1.2492   -1.0925    3.3546 O.2       1 <0>        -0.5199
     31 O2          2.0685   -0.5400   -0.7710 O.2       1 <0>        -0.6131
     32 O3          0.5666   -3.5687   -4.1193 O.2       1 <0>        -0.6576
     33 O4          1.3717   -4.4805   -1.9182 O.2       1 <0>        -0.6482
     34 O5          1.3501   -2.6026    1.6500 O.3       1 <0>        -0.6303
     35 S1          1.6226   -3.7401   -3.1398 S.o2      1 <0>         1.5193
     36 H1          5.1651   -7.0499   -3.3191 H         1 <0>         0.1426
     37 H2          5.9695   -6.3793   -5.5572 H         1 <0>         0.1398
     38 H3          3.2408   -5.8606   -2.2841 H         1 <0>         0.1599
     39 H4          5.9032   -3.7780   -7.0283 H         1 <0>         0.0574
     40 H5          5.3064   -5.2922   -7.7305 H         1 <0>         0.0629
     41 H6          3.5311   -4.0088    2.1410 H         1 <0>         0.0614
     42 H7          5.2694   -4.2509    2.1463 H         1 <0>         0.0593
     43 H8          5.0641   -0.5305    2.5137 H         1 <0>         0.0841
     44 H9          3.8399   -0.5392    3.7741 H         1 <0>         0.0679
     45 H10         5.5312   -2.2723    0.6079 H         1 <0>         0.0826
     46 H11         4.4795   -3.5150   -0.0747 H         1 <0>         0.0383
     47 H12         4.1332   -1.7860   -6.8255 H         1 <0>         0.0556
     48 H13         2.5733   -1.9808   -7.6281 H         1 <0>         0.0415
     49 H14         2.9188    0.0160    1.5141 H         1 <0>         0.0851
     50 H15         3.1316   -4.3307   -8.2205 H         1 <0>         0.0639
     51 H16         3.9047   -2.8651    4.0450 H         1 <0>         0.0584
     52 H17         3.7183   -2.7462   -9.9199 H         1 <0>         0.0401
     53 H18         5.1656   -2.2153   -9.0415 H         1 <0>         0.0440
     54 H19         5.1120   -3.8335   -9.7673 H         1 <0>         0.0459
     55 H20         6.0310   -3.1862    4.7353 H         1 <0>         0.0456
     56 H21         6.7293   -2.8350    3.1425 H         1 <0>         0.0366
     57 H22         6.2606   -1.5045    4.2187 H         1 <0>         0.0474
     58 H23         3.1961   -0.1462   -3.7411 H         1 <0>         0.0800
     59 H24         3.7428    0.6319   -2.2522 H         1 <0>         0.0681
     60 H25         5.4094   -1.1917   -1.8946 H         1 <0>         0.0740
     61 H26         4.9285   -1.9502   -3.4070 H         1 <0>         0.0631
     62 H27         4.7831    1.7144   -4.2291 H         1 <0>         0.0970
     63 H28         5.4669    0.1582   -4.7272 H         1 <0>         0.0725
     64 H29         3.7703   -3.1244   -1.5692 H         1 <0>         0.0839
     65 H30         2.0790   -2.5485   -5.3676 H         1 <0>         0.4531
     66 H31         8.3751    1.6802   -1.4586 H         1 <0>         0.4798
     67 H32         7.7578    3.2357   -0.9979 H         1 <0>         0.4881
     68 H33         4.6870    3.0425   -2.9194 H         1 <0>         0.4801
     69 H34         5.6299    4.0277   -1.8385 H         1 <0>         0.4806
     70 H35         7.0604    0.2841   -2.9828 H         1 <0>         0.4689
     71 H36         1.6613   -1.3957   -2.7560 H         1 <0>         0.4505
     72 H37         0.5099   -2.9556    2.0129 H         1 <0>         0.4443
@<TRIPOS>BOND
     1    1    2 ar
     2    1    3 ar
     3    2    4 ar
     4    3    6 ar
     5    4    5 ar
     6    4   10 1
     7    5    6 ar
     8    5   24 1
     9    6   35 1
    10    7   15 1
    11    7   30 2
    12    7   34 1
    13    8   23 1
    14    8   25 am
    15    8   31 2
    16    9   26 1
    17    9   27 1
    18    9   28 1
    19   10   16 1
    20   11   13 1
    21   11   17 1
    22   12   15 1
    23   12   17 1
    24   13   25 1
    25   14   16 1
    26   14   24 1
    27   15   25 1
    28   16   18 1
    29   17   19 1
    30   20   21 1
    31   20   22 1
    32   21   23 1
    33   22   28 1
    34   23   29 1
    35   29   35 1
    36   32   35 2
    37   33   35 2
    38    1   36 1
    39    2   37 1
    40    3   38 1
    41   10   39 1
    42   10   40 1
    43   11   41 1
    44   11   42 1
    45   12   43 1
    46   12   44 1
    47   13   45 1
    48   13   46 1
    49   14   47 1
    50   14   48 1
    51   15   49 1
    52   16   50 1
    53   17   51 1
    54   18   52 1
    55   18   53 1
    56   18   54 1
    57   19   55 1
    58   19   56 1
    59   19   57 1
    60   20   58 1
    61   20   59 1
    62   21   60 1
    63   21   61 1
    64   22   62 1
    65   22   63 1
    66   23   64 1
    67   24   65 1
    68   26   66 1
    69   26   67 1
    70   27   68 1
    71   27   69 1
    72   28   70 1
    73   29   71 1
    74   34   72 1
@<TRIPOS>MOLECULE
1dwc_ligand_214
   72    74     0     0     0
SMALL
USER_CHARGES

mmff94s_NoEstat = 79.73
@<TRIPOS>ATOM
      1 C1         -2.8852   -6.7028    4.6044 C.ar      1 <0>        -0.1945
      2 C2         -2.7574   -6.8464    5.9843 C.ar      1 <0>        -0.0294
      3 C3         -1.8117   -6.2329    3.8538 C.ar      1 <0>        -0.0143
      4 C4         -1.5535   -6.5163    6.6233 C.ar      1 <0>        -0.1552
      5 C5         -0.4531   -6.0672    5.8671 C.ar      1 <0>         0.3076
      6 C6         -0.6063   -5.9145    4.4813 C.ar      1 <0>        -0.4908
      7 C7          1.4514   -2.5988    0.0967 C.2       1 <0>         0.5994
      8 C8          0.8654   -1.4427    3.2413 C.2       1 <0>         0.6462
      9 C9         -2.8213    0.6638    5.9816 C.cat     1 <0>         0.6305
     10 C10        -1.4319   -6.6865    8.1186 C.3       1 <0>        -0.0319
     11 C11         3.6646    0.1420    1.4610 C.3       1 <0>        -0.0918
     12 C12         3.7378   -2.3141    0.9826 C.3       1 <0>        -0.0841
     13 C13         2.1755    0.0307    1.7624 C.3       1 <0>         0.0870
     14 C14         0.9870   -6.0549    7.8660 C.3       1 <0>         0.2023
     15 C15         2.2625   -2.4390    1.3721 C.3       1 <0>         0.0778
     16 C16        -0.2760   -5.8653    8.7129 C.3       1 <0>        -0.0746
     17 C17         4.1003   -0.9215    0.4496 C.3       1 <0>        -0.0681
     18 C18        -0.6451   -4.3852    8.8648 C.3       1 <0>        -0.0944
     19 C19         5.5981   -0.8213    0.1676 C.3       1 <0>        -0.0918
     20 C20        -2.1115   -1.2711    3.3990 C.3       1 <0>        -0.1192
     21 C21        -1.3133   -2.4479    3.9716 C.3       1 <0>        -0.0916
     22 C22        -3.3821   -0.9970    4.1941 C.3       1 <0>         0.1883
     23 C23        -0.0078   -2.6730    3.2260 C.3       1 <0>         0.1952
     24 N1          0.7493   -5.7256    6.4733 N.pl3     1 <0>        -0.7670
     25 N2          1.7920   -1.3156    2.2000 N.am      1 <0>        -0.4509
     26 N3         -2.5447    0.9705    7.3098 N.pl3     1 <0>        -0.8477
     27 N4         -2.8329    1.6855    5.0381 N.pl3     1 <0>        -0.8633
     28 N5         -3.0875   -0.6486    5.5765 N.pl3     1 <0>        -0.7419
     29 N6          0.7961   -3.6905    3.9267 N.pl3     1 <0>        -0.8860
     30 O1          0.9129   -1.6859   -0.5116 O.2       1 <0>        -0.5199
     31 O2          0.7326   -0.6231    4.1542 O.2       1 <0>        -0.6131
     32 O3          1.9178   -6.0078    3.8522 O.2       1 <0>        -0.6576
     33 O4          0.2309   -5.3989    2.0892 O.2       1 <0>        -0.6482
     34 O5          1.4016   -3.9002   -0.2790 O.3       1 <0>        -0.6303
     35 S1          0.6998   -5.3249    3.4597 S.o2      1 <0>         1.5193
     36 H1         -3.8225   -6.9542    4.1154 H         1 <0>         0.1426
     37 H2         -3.6024   -7.2116    6.5633 H         1 <0>         0.1398
     38 H3         -1.9015   -6.1112    2.7788 H         1 <0>         0.1599
     39 H4         -2.3718   -6.4061    8.6096 H         1 <0>         0.0574
     40 H5         -1.2585   -7.7513    8.3199 H         1 <0>         0.0629
     41 H6          3.8861    1.1434    1.0733 H         1 <0>         0.0614
     42 H7          4.2345    0.0234    2.3914 H         1 <0>         0.0593
     43 H8          4.3486   -2.5190    1.8725 H         1 <0>         0.0841
     44 H9          4.0049   -3.0750    0.2383 H         1 <0>         0.0679
     45 H10         1.9026    0.7727    2.5199 H         1 <0>         0.0826
     46 H11         1.5868    0.2575    0.8652 H         1 <0>         0.0383
     47 H12         1.8016   -5.4313    8.2507 H         1 <0>         0.0556
     48 H13         1.3225   -7.0973    7.9316 H         1 <0>         0.0415
     49 H14         2.1294   -3.3770    1.9203 H         1 <0>         0.0851
     50 H15        -0.0760   -6.2391    9.7247 H         1 <0>         0.0639
     51 H16         3.5735   -0.7500   -0.4973 H         1 <0>         0.0584
     52 H17        -1.6128   -4.1805    8.3973 H         1 <0>         0.0401
     53 H18        -0.7085   -4.1113    9.9222 H         1 <0>         0.0440
     54 H19         0.1084   -3.7505    8.3890 H         1 <0>         0.0459
     55 H20         6.0283   -1.8160    0.0172 H         1 <0>         0.0456
     56 H21         5.7810   -0.2271   -0.7327 H         1 <0>         0.0366
     57 H22         6.1159   -0.3453    1.0057 H         1 <0>         0.0474
     58 H23        -1.4838   -0.3719    3.3933 H         1 <0>         0.0800
     59 H24        -2.3885   -1.4831    2.3599 H         1 <0>         0.0681
     60 H25        -1.9335   -3.3536    3.9489 H         1 <0>         0.0740
     61 H26        -1.0849   -2.2531    5.0271 H         1 <0>         0.0631
     62 H27        -4.0449   -1.8681    4.1933 H         1 <0>         0.0970
     63 H28        -3.9265   -0.1572    3.7507 H         1 <0>         0.0725
     64 H29        -0.1638   -2.9774    2.1921 H         1 <0>         0.0839
     65 H30         1.5327   -5.4807    5.8802 H         1 <0>         0.4531
     66 H31        -2.5273    0.2572    8.0338 H         1 <0>         0.4798
     67 H32        -2.3528    1.9278    7.5960 H         1 <0>         0.4881
     68 H33        -3.0315    1.4965    4.0587 H         1 <0>         0.4801
     69 H34        -2.6420    2.6489    5.3029 H         1 <0>         0.4806
     70 H35        -3.0717   -1.3769    6.2920 H         1 <0>         0.4689
     71 H36         1.6533   -3.3509    4.3757 H         1 <0>         0.4505
     72 H37         0.8801   -4.0246   -1.1005 H         1 <0>         0.4443
@<TRIPOS>BOND
     1    1    2 ar
     2    1    3 ar
     3    2    4 ar
     4    3    6 ar
     5    4    5 ar
     6    4   10 1
     7    5    6 ar
     8    5   24 1
     9    6   35 1
    10    7   15 1
    11    7   30 2
    12    7   34 1
    13    8   23 1
    14    8   25 am
    15    8   31 2
    16    9   26 1
    17    9   27 1
    18    9   28 1
    19   10   16 1
    20   11   13 1
    21   11   17 1
    22   12   15 1
    23   12   17 1
    24   13   25 1
    25   14   16 1
    26   14   24 1
    27   15   25 1
    28   16   18 1
    29   17   19 1
    30   20   21 1
    31   20   22 1
    32   21   23 1
    33   22   28 1
    34   23   29 1
    35   29   35 1
    36   32   35 2
    37   33   35 2
    38    1   36 1
    39    2   37 1
    40    3   38 1
    41   10   39 1
    42   10   40 1
    43   11   41 1
    44   11   42 1
    45   12   43 1
    46   12   44 1
    47   13   45 1
    48   13   46 1
    49   14   47 1
    50   14   48 1
    51   15   49 1
    52   16   50 1
    53   17   51 1
    54   18   52 1
    55   18   53 1
    56   18   54 1
    57   19   55 1
    58   19   56 1
    59   19   57 1
    60   20   58 1
    61   20   59 1
    62   21   60 1
    63   21   61 1
    64   22   62 1
    65   22   63 1
    66   23   64 1
    67   24   65 1
    68   26   66 1
    69   26   67 1
    70   27   68 1
    71   27   69 1
    72   28   70 1
    73   29   71 1
    74   34   72 1
@<TRIPOS>MOLECULE
1dwc_ligand_215
   72    74     0     0     0
SMALL
USER_CHARGES

mmff94s_NoEstat = 79.73
@<TRIPOS>ATOM
      1 C1         -3.1525   -6.1500    2.7247 C.ar      1 <0>        -0.1945
      2 C2         -3.7220   -6.2210    3.9943 C.ar      1 <0>        -0.0294
      3 C3         -1.7958   -5.8721    2.5879 C.ar      1 <0>        -0.0143
      4 C4         -2.9366   -6.0100    5.1368 C.ar      1 <0>        -0.1552
      5 C5         -1.5569   -5.7567    5.0078 C.ar      1 <0>         0.3076
      6 C6         -1.0052   -5.6737    3.7210 C.ar      1 <0>        -0.4908
      7 C7          1.0326   -1.5891   -0.1526 C.2       1 <0>         0.5994
      8 C8          0.8654   -1.4427    3.2413 C.2       1 <0>         0.6462
      9 C9         -5.3792    0.5120    4.1450 C.cat     1 <0>         0.6305
     10 C10        -3.5704   -6.0992    6.5042 C.3       1 <0>        -0.0319
     11 C11         4.0928   -0.4819    1.7658 C.3       1 <0>        -0.0918
     12 C12         3.2369   -2.4756    0.5172 C.3       1 <0>        -0.0841
     13 C13         2.6673   -0.1389    2.1793 C.3       1 <0>         0.0870
     14 C14        -1.2626   -5.8045    7.4534 C.3       1 <0>         0.2023
     15 C15         1.8171   -2.1794    1.0075 C.3       1 <0>         0.0778
     16 C16        -2.7344   -5.3990    7.5879 C.3       1 <0>        -0.0746
     17 C17         4.1123   -1.2187    0.4240 C.3       1 <0>        -0.0681
     18 C18        -2.9130   -3.8769    7.5534 C.3       1 <0>        -0.0944
     19 C19         5.5413   -1.5810    0.0243 C.3       1 <0>        -0.0918
     20 C20        -2.1115   -1.2711    3.3990 C.3       1 <0>        -0.1192
     21 C21        -1.3133   -2.4479    3.9716 C.3       1 <0>        -0.0916
     22 C22        -3.3821   -0.9970    4.1941 C.3       1 <0>         0.1883
     23 C23        -0.0078   -2.6730    3.2260 C.3       1 <0>         0.1952
     24 N1         -0.7555   -5.5363    6.1210 N.pl3     1 <0>        -0.7670
     25 N2          1.7920   -1.3156    2.2000 N.am      1 <0>        -0.4509
     26 N3         -6.0873    1.5705    3.5854 N.pl3     1 <0>        -0.8477
     27 N4         -5.9120   -0.1549    5.2429 N.pl3     1 <0>        -0.8633
     28 N5         -4.1449    0.1056    3.6268 N.pl3     1 <0>        -0.7419
     29 N6          0.7961   -3.6905    3.9267 N.pl3     1 <0>        -0.8860
     30 O1          0.8941   -0.3947   -0.3706 O.2       1 <0>        -0.5199
     31 O2          0.7326   -0.6231    4.1542 O.2       1 <0>        -0.6131
     32 O3          1.4689   -6.1338    4.3859 O.2       1 <0>        -0.6576
     33 O4          0.9378   -5.4244    2.0325 O.2       1 <0>        -0.6482
     34 O5          0.4997   -2.5717   -0.9193 O.3       1 <0>        -0.6303
     35 S1          0.6998   -5.3249    3.4597 S.o2      1 <0>         1.5193
     36 H1         -3.7672   -6.3081    1.8427 H         1 <0>         0.1426
     37 H2         -4.7835   -6.4358    4.0916 H         1 <0>         0.1398
     38 H3         -1.3423   -5.8084    1.6037 H         1 <0>         0.1599
     39 H4         -4.5789   -5.6685    6.4833 H         1 <0>         0.0574
     40 H5         -3.6702   -7.1626    6.7568 H         1 <0>         0.0629
     41 H6          4.6862    0.4377    1.6990 H         1 <0>         0.0614
     42 H7          4.5556   -1.1085    2.5390 H         1 <0>         0.0593
     43 H8          3.7056   -3.1781    1.2199 H         1 <0>         0.0841
     44 H9          3.2100   -2.9795   -0.4573 H         1 <0>         0.0679
     45 H10         2.6813    0.3462    3.1608 H         1 <0>         0.0826
     46 H11         2.2276    0.5771    1.4744 H         1 <0>         0.0383
     47 H12        -0.6505   -5.2688    8.1875 H         1 <0>         0.0556
     48 H13        -1.1538   -6.8753    7.6654 H         1 <0>         0.0415
     49 H14         1.3264   -3.1308    1.2358 H         1 <0>         0.0851
     50 H15        -3.0985   -5.7306    8.5681 H         1 <0>         0.0639
     51 H16         3.7098   -0.5563   -0.3523 H         1 <0>         0.0584
     52 H17        -3.4985   -3.5784    6.6787 H         1 <0>         0.0401
     53 H18        -3.4337   -3.5305    8.4511 H         1 <0>         0.0440
     54 H19        -1.9410   -3.3769    7.5042 H         1 <0>         0.0459
     55 H20         5.5642   -2.5489   -0.4852 H         1 <0>         0.0456
     56 H21         5.9547   -0.8262   -0.6513 H         1 <0>         0.0366
     57 H22         6.1838   -1.6417    0.9078 H         1 <0>         0.0474
     58 H23        -1.4838   -0.3719    3.3933 H         1 <0>         0.0800
     59 H24        -2.3885   -1.4831    2.3599 H         1 <0>         0.0681
     60 H25        -1.9335   -3.3536    3.9489 H         1 <0>         0.0740
     61 H26        -1.0849   -2.2531    5.0271 H         1 <0>         0.0631
     62 H27        -3.1519   -0.7547    5.2365 H         1 <0>         0.0970
     63 H28        -4.0259   -1.8823    4.1866 H         1 <0>         0.0725
     64 H29        -0.1638   -2.9774    2.1921 H         1 <0>         0.0839
     65 H30         0.2422   -5.4334    5.9808 H         1 <0>         0.4531
     66 H31        -5.7362    2.0880    2.7841 H         1 <0>         0.4798
     67 H32        -6.9840    1.8599    3.9689 H         1 <0>         0.4881
     68 H33        -5.4209   -0.9328    5.6766 H         1 <0>         0.4801
     69 H34        -6.8078    0.1174    5.6406 H         1 <0>         0.4806
     70 H35        -3.7797    0.6144    2.8203 H         1 <0>         0.4689
     71 H36         1.6533   -3.3509    4.3757 H         1 <0>         0.4505
     72 H37        -0.0129   -2.2104   -1.6737 H         1 <0>         0.4443
@<TRIPOS>BOND
     1    1    2 ar
     2    1    3 ar
     3    2    4 ar
     4    3    6 ar
     5    4    5 ar
     6    4   10 1
     7    5    6 ar
     8    5   24 1
     9    6   35 1
    10    7   15 1
    11    7   30 2
    12    7   34 1
    13    8   23 1
    14    8   25 am
    15    8   31 2
    16    9   26 1
    17    9   27 1
    18    9   28 1
    19   10   16 1
    20   11   13 1
    21   11   17 1
    22   12   15 1
    23   12   17 1
    24   13   25 1
    25   14   16 1
    26   14   24 1
    27   15   25 1
    28   16   18 1
    29   17   19 1
    30   20   21 1
    31   20   22 1
    32   21   23 1
    33   22   28 1
    34   23   29 1
    35   29   35 1
    36   32   35 2
    37   33   35 2
    38    1   36 1
    39    2   37 1
    40    3   38 1
    41   10   39 1
    42   10   40 1
    43   11   41 1
    44   11   42 1
    45   12   43 1
    46   12   44 1
    47   13   45 1
    48   13   46 1
    49   14   47 1
    50   14   48 1
    51   15   49 1
    52   16   50 1
    53   17   51 1
    54   18   52 1
    55   18   53 1
    56   18   54 1
    57   19   55 1
    58   19   56 1
    59   19   57 1
    60   20   58 1
    61   20   59 1
    62   21   60 1
    63   21   61 1
    64   22   62 1
    65   22   63 1
    66   23   64 1
    67   24   65 1
    68   26   66 1
    69   26   67 1
    70   27   68 1
    71   27   69 1
    72   28   70 1
    73   29   71 1
    74   34   72 1
@<TRIPOS>MOLECULE
1dwc_ligand_216
   72    74     0     0     0
SMALL
USER_CHARGES

mmff94s_NoEstat = 79.76
@<TRIPOS>ATOM
      1 C1          4.6297   -0.9103   -6.7268 C.ar      1 <0>        -0.1945
      2 C2          3.7850    0.1236   -7.1250 C.ar      1 <0>        -0.0294
      3 C3          4.1728   -1.8743   -5.8330 C.ar      1 <0>        -0.0143
      4 C4          2.4739    0.1968   -6.6333 C.ar      1 <0>        -0.1552
      5 C5          2.0130   -0.7587   -5.7058 C.ar      1 <0>         0.3076
      6 C6          2.8732   -1.8003   -5.3291 C.ar      1 <0>        -0.4908
      7 C7          0.5484   -0.8946    1.4535 C.2       1 <0>         0.5994
      8 C8          2.9466   -1.3973   -0.6457 C.2       1 <0>         0.6462
      9 C9          7.3637   -1.8955    1.1139 C.cat     1 <0>         0.6305
     10 C10         1.5746    1.3285   -7.0701 C.3       1 <0>        -0.0319
     11 C11         1.0071   -4.1523    1.0299 C.3       1 <0>        -0.0918
     12 C12         1.8830   -2.5004    2.7729 C.3       1 <0>        -0.0841
     13 C13         2.2320   -3.6460    0.2757 C.3       1 <0>         0.0870
     14 C14        -0.1144    0.4522   -5.4375 C.3       1 <0>         0.2023
     15 C15         1.9200   -1.5343    1.5913 C.3       1 <0>         0.0778
     16 C16         0.0925    0.9803   -6.8608 C.3       1 <0>        -0.0746
     17 C17         1.0079   -3.7392    2.5107 C.3       1 <0>        -0.0681
     18 C18        -0.7938    2.1935   -7.1293 C.3       1 <0>        -0.0944
     19 C19         1.4463   -4.8953    3.4115 C.3       1 <0>        -0.0918
     20 C20         5.7415   -1.0578   -1.6401 C.3       1 <0>        -0.1192
     21 C21         4.5564   -1.3488   -2.5679 C.3       1 <0>        -0.0916
     22 C22         6.4279   -2.3331   -1.1666 C.3       1 <0>         0.1883
     23 C23         3.4544   -2.1251   -1.8653 C.3       1 <0>         0.1952
     24 N1          0.7189   -0.7118   -5.2023 N.pl3     1 <0>        -0.7670
     25 N2          2.3654   -2.1840    0.3531 N.am      1 <0>        -0.4509
     26 N3          8.4394   -1.6235    1.9528 N.pl3     1 <0>        -0.8477
     27 N4          6.0915   -2.0198    1.6616 N.pl3     1 <0>        -0.8633
     28 N5          7.5354   -2.0461   -0.2663 N.pl3     1 <0>        -0.7419
     29 N6          2.2741   -2.2179   -2.7432 N.pl3     1 <0>        -0.8860
     30 O1         -0.0257   -0.2688    2.3322 O.2       1 <0>        -0.5199
     31 O2          3.0580   -0.1705   -0.5795 O.2       1 <0>        -0.6131
     32 O3          1.0424   -3.5029   -4.6049 O.2       1 <0>        -0.6576
     33 O4          3.4591   -4.0219   -4.1418 O.2       1 <0>        -0.6482
     34 O5          0.0400   -1.1141    0.2163 O.3       1 <0>        -0.6303
     35 S1          2.3700   -3.0669   -4.2159 S.o2      1 <0>         1.5193
     36 H1          5.6425   -0.9658   -7.1163 H         1 <0>         0.1426
     37 H2          4.1495    0.8708   -7.8260 H         1 <0>         0.1398
     38 H3          4.8199   -2.6877   -5.5204 H         1 <0>         0.1599
     39 H4          1.8410    2.2228   -6.4926 H         1 <0>         0.0574
     40 H5          1.7437    1.5523   -8.1305 H         1 <0>         0.0629
     41 H6          0.1116   -3.7326    0.5525 H         1 <0>         0.0614
     42 H7          0.9264   -5.2409    0.9288 H         1 <0>         0.0593
     43 H8          2.9117   -2.8226    2.9853 H         1 <0>         0.0841
     44 H9          1.5267   -1.9929    3.6785 H         1 <0>         0.0679
     45 H10         3.1493   -4.0774    0.6933 H         1 <0>         0.0826
     46 H11         2.1726   -3.9558   -0.7722 H         1 <0>         0.0383
     47 H12         0.1272    1.2275   -4.6998 H         1 <0>         0.0556
     48 H13        -1.1636    0.1756   -5.2850 H         1 <0>         0.0415
     49 H14         2.6095   -0.7128    1.8202 H         1 <0>         0.0851
     50 H15        -0.1886    0.1924   -7.5728 H         1 <0>         0.0639
     51 H16        -0.0273   -3.5034    2.7887 H         1 <0>         0.0584
     52 H17        -1.8415    1.8916   -7.2203 H         1 <0>         0.0401
     53 H18        -0.7134    2.9168   -6.3123 H         1 <0>         0.0440
     54 H19        -0.4962    2.6887   -8.0584 H         1 <0>         0.0459
     55 H20         0.5753   -5.4296    3.8024 H         1 <0>         0.0456
     56 H21         2.0638   -5.6051    2.8530 H         1 <0>         0.0366
     57 H22         2.0303   -4.5225    4.2583 H         1 <0>         0.0474
     58 H23         6.4686   -0.4251   -2.1633 H         1 <0>         0.0800
     59 H24         5.3954   -0.5006   -0.7619 H         1 <0>         0.0681
     60 H25         4.9119   -1.8947   -3.4517 H         1 <0>         0.0740
     61 H26         4.1396   -0.4017   -2.9334 H         1 <0>         0.0631
     62 H27         6.8136   -2.9120   -2.0118 H         1 <0>         0.0970
     63 H28         5.7150   -2.9614   -0.6232 H         1 <0>         0.0725
     64 H29         3.7703   -3.1244   -1.5692 H         1 <0>         0.0839
     65 H30         0.4580   -1.3745   -4.4825 H         1 <0>         0.4531
     66 H31         9.3869   -1.5262    1.5976 H         1 <0>         0.4798
     67 H32         8.3059   -1.5161    2.9556 H         1 <0>         0.4881
     68 H33         5.2830   -2.2184    1.0773 H         1 <0>         0.4801
     69 H34         5.9359   -1.9143    2.6613 H         1 <0>         0.4806
     70 H35         8.4812   -1.9492   -0.6389 H         1 <0>         0.4689
     71 H36         1.3641   -2.1281   -2.2790 H         1 <0>         0.4505
     72 H37        -0.8473   -0.7100    0.1079 H         1 <0>         0.4443
@<TRIPOS>BOND
     1    1    2 ar
     2    1    3 ar
     3    2    4 ar
     4    3    6 ar
     5    4    5 ar
     6    4   10 1
     7    5    6 ar
     8    5   24 1
     9    6   35 1
    10    7   15 1
    11    7   30 2
    12    7   34 1
    13    8   23 1
    14    8   25 am
    15    8   31 2
    16    9   26 1
    17    9   27 1
    18    9   28 1
    19   10   16 1
    20   11   13 1
    21   11   17 1
    22   12   15 1
    23   12   17 1
    24   13   25 1
    25   14   16 1
    26   14   24 1
    27   15   25 1
    28   16   18 1
    29   17   19 1
    30   20   21 1
    31   20   22 1
    32   21   23 1
    33   22   28 1
    34   23   29 1
    35   29   35 1
    36   32   35 2
    37   33   35 2
    38    1   36 1
    39    2   37 1
    40    3   38 1
    41   10   39 1
    42   10   40 1
    43   11   41 1
    44   11   42 1
    45   12   43 1
    46   12   44 1
    47   13   45 1
    48   13   46 1
    49   14   47 1
    50   14   48 1
    51   15   49 1
    52   16   50 1
    53   17   51 1
    54   18   52 1
    55   18   53 1
    56   18   54 1
    57   19   55 1
    58   19   56 1
    59   19   57 1
    60   20   58 1
    61   20   59 1
    62   21   60 1
    63   21   61 1
    64   22   62 1
    65   22   63 1
    66   23   64 1
    67   24   65 1
    68   26   66 1
    69   26   67 1
    70   27   68 1
    71   27   69 1
    72   28   70 1
    73   29   71 1
    74   34   72 1
@<TRIPOS>MOLECULE
1dwc_ligand_217
   72    74     0     0     0
SMALL
USER_CHARGES

mmff94s_NoEstat = 79.76
@<TRIPOS>ATOM
      1 C1          2.6273   -4.0149   -7.0098 C.ar      1 <0>        -0.1945
      2 C2          3.8450   -4.6917   -6.9870 C.ar      1 <0>        -0.0294
      3 C3          1.9654   -3.7371   -5.8175 C.ar      1 <0>        -0.0143
      4 C4          4.4106   -5.0917   -5.7679 C.ar      1 <0>        -0.1552
      5 C5          3.7329   -4.8399   -4.5584 C.ar      1 <0>         0.3076
      6 C6          2.5161   -4.1440   -4.6011 C.ar      1 <0>        -0.4908
      7 C7          1.8102   -1.5505    2.3702 C.2       1 <0>         0.5994
      8 C8          2.9466   -1.3973   -0.6457 C.2       1 <0>         0.6462
      9 C9          6.5364    0.5009   -5.9324 C.cat     1 <0>         0.6305
     10 C10         5.7274   -5.8307   -5.7625 C.3       1 <0>        -0.0319
     11 C11         4.4920   -3.4807    2.0801 C.3       1 <0>        -0.0918
     12 C12         4.1798   -1.0721    2.8769 C.3       1 <0>        -0.0841
     13 C13         4.5658   -2.7774    0.7291 C.3       1 <0>         0.0870
     14 C14         5.4257   -6.0988   -3.2880 C.3       1 <0>         0.2023
     15 C15         3.1125   -1.0286    1.7861 C.3       1 <0>         0.0778
     16 C16         6.4204   -5.7326   -4.3944 C.3       1 <0>        -0.0746
     17 C17         4.5869   -2.5050    3.2643 C.3       1 <0>        -0.0681
     18 C18         7.6522   -6.6324   -4.3434 C.3       1 <0>        -0.0944
     19 C19         5.9882   -2.5079    3.8779 C.3       1 <0>        -0.0918
     20 C20         4.0666    0.0061   -3.0917 C.3       1 <0>        -0.1192
     21 C21         4.5564   -1.3488   -2.5679 C.3       1 <0>        -0.0916
     22 C22         5.1498    0.7503   -3.8628 C.3       1 <0>         0.1883
     23 C23         3.4544   -2.1251   -1.8653 C.3       1 <0>         0.1952
     24 N1          4.2695   -5.2239   -3.3356 N.pl3     1 <0>        -0.7670
     25 N2          3.5192   -1.7560    0.5781 N.am      1 <0>        -0.4509
     26 N3          6.9409   -0.2356   -7.0409 N.pl3     1 <0>        -0.8477
     27 N4          7.0867    1.7598   -5.7173 N.pl3     1 <0>        -0.8633
     28 N5          5.5893    0.0019   -5.0317 N.pl3     1 <0>        -0.7419
     29 N6          2.2741   -2.2179   -2.7432 N.pl3     1 <0>        -0.8860
     30 O1          1.2492   -1.0925    3.3546 O.2       1 <0>        -0.5199
     31 O2          2.0685   -0.5400   -0.7710 O.2       1 <0>        -0.6131
     32 O3          0.2257   -3.5846   -3.4982 O.2       1 <0>        -0.6576
     33 O4          2.0133   -4.7010   -2.1261 O.2       1 <0>        -0.6482
     34 O5          1.3501   -2.6026    1.6500 O.3       1 <0>        -0.6303
     35 S1          1.6226   -3.7401   -3.1398 S.o2      1 <0>         1.5193
     36 H1          2.1970   -3.7014   -7.9569 H         1 <0>         0.1426
     37 H2          4.3565   -4.9018   -7.9233 H         1 <0>         0.1398
     38 H3          1.0194   -3.2051   -5.8226 H         1 <0>         0.1599
     39 H4          5.5344   -6.8806   -6.0173 H         1 <0>         0.0574
     40 H5          6.3916   -5.4165   -6.5310 H         1 <0>         0.0629
     41 H6          3.5311   -4.0088    2.1410 H         1 <0>         0.0614
     42 H7          5.2694   -4.2509    2.1463 H         1 <0>         0.0593
     43 H8          5.0641   -0.5305    2.5137 H         1 <0>         0.0841
     44 H9          3.8399   -0.5392    3.7741 H         1 <0>         0.0679
     45 H10         5.5312   -2.2723    0.6079 H         1 <0>         0.0826
     46 H11         4.4795   -3.5150   -0.0747 H         1 <0>         0.0383
     47 H12         5.0981   -7.1405   -3.3936 H         1 <0>         0.0556
     48 H13         5.9015   -6.0068   -2.3053 H         1 <0>         0.0415
     49 H14         2.9188    0.0160    1.5141 H         1 <0>         0.0851
     50 H15         6.7521   -4.6968   -4.2405 H         1 <0>         0.0639
     51 H16         3.9047   -2.8651    4.0450 H         1 <0>         0.0584
     52 H17         8.2744   -6.3835   -3.4786 H         1 <0>         0.0401
     53 H18         7.3578   -7.6832   -4.2652 H         1 <0>         0.0440
     54 H19         8.2552   -6.5099   -5.2482 H         1 <0>         0.0459
     55 H20         6.0310   -3.1862    4.7353 H         1 <0>         0.0456
     56 H21         6.7293   -2.8350    3.1425 H         1 <0>         0.0366
     57 H22         6.2606   -1.5045    4.2187 H         1 <0>         0.0474
     58 H23         3.1961   -0.1462   -3.7411 H         1 <0>         0.0800
     59 H24         3.7428    0.6319   -2.2522 H         1 <0>         0.0681
     60 H25         5.4094   -1.1917   -1.8946 H         1 <0>         0.0740
     61 H26         4.9285   -1.9502   -3.4070 H         1 <0>         0.0631
     62 H27         6.0226    0.9442   -3.2312 H         1 <0>         0.0970
     63 H28         4.7647    1.7133   -4.2128 H         1 <0>         0.0725
     64 H29         3.7703   -3.1244   -1.5692 H         1 <0>         0.0839
     65 H30         3.7116   -5.0890   -2.5014 H         1 <0>         0.4531
     66 H31         6.5676   -1.1605   -7.2371 H         1 <0>         0.4798
     67 H32         7.6308    0.1346   -7.6906 H         1 <0>         0.4881
     68 H33         6.8135    2.3249   -4.9169 H         1 <0>         0.4801
     69 H34         7.7763    2.1491   -6.3557 H         1 <0>         0.4806
     70 H35         5.2033   -0.9252   -5.2162 H         1 <0>         0.4689
     71 H36         1.6613   -1.3957   -2.7560 H         1 <0>         0.4505
     72 H37         0.5099   -2.9556    2.0129 H         1 <0>         0.4443
@<TRIPOS>BOND
     1    1    2 ar
     2    1    3 ar
     3    2    4 ar
     4    3    6 ar
     5    4    5 ar
     6    4   10 1
     7    5    6 ar
     8    5   24 1
     9    6   35 1
    10    7   15 1
    11    7   30 2
    12    7   34 1
    13    8   23 1
    14    8   25 am
    15    8   31 2
    16    9   26 1
    17    9   27 1
    18    9   28 1
    19   10   16 1
    20   11   13 1
    21   11   17 1
    22   12   15 1
    23   12   17 1
    24   13   25 1
    25   14   16 1
    26   14   24 1
    27   15   25 1
    28   16   18 1
    29   17   19 1
    30   20   21 1
    31   20   22 1
    32   21   23 1
    33   22   28 1
    34   23   29 1
    35   29   35 1
    36   32   35 2
    37   33   35 2
    38    1   36 1
    39    2   37 1
    40    3   38 1
    41   10   39 1
    42   10   40 1
    43   11   41 1
    44   11   42 1
    45   12   43 1
    46   12   44 1
    47   13   45 1
    48   13   46 1
    49   14   47 1
    50   14   48 1
    51   15   49 1
    52   16   50 1
    53   17   51 1
    54   18   52 1
    55   18   53 1
    56   18   54 1
    57   19   55 1
    58   19   56 1
    59   19   57 1
    60   20   58 1
    61   20   59 1
    62   21   60 1
    63   21   61 1
    64   22   62 1
    65   22   63 1
    66   23   64 1
    67   24   65 1
    68   26   66 1
    69   26   67 1
    70   27   68 1
    71   27   69 1
    72   28   70 1
    73   29   71 1
    74   34   72 1
@<TRIPOS>MOLECULE
1dwc_ligand_218
   72    74     0     0     0
SMALL
USER_CHARGES

mmff94s_NoEstat = 79.76
@<TRIPOS>ATOM
      1 C1         -1.9965   -5.9212    5.9958 C.ar      1 <0>        -0.1945
      2 C2         -2.1862   -5.2163    7.1826 C.ar      1 <0>        -0.0294
      3 C3         -2.1655   -5.2788    4.7728 C.ar      1 <0>        -0.0143
      4 C4         -2.5430   -3.8606    7.1524 C.ar      1 <0>        -0.1552
      5 C5         -2.7443   -3.2106    5.9185 C.ar      1 <0>         0.3076
      6 C6         -2.5336   -3.9330    4.7351 C.ar      1 <0>        -0.4908
      7 C7          1.8094   -2.2220    6.4146 C.2       1 <0>         0.5994
      8 C8          0.8654   -1.4427    3.2413 C.2       1 <0>         0.6462
      9 C9          4.1374   -5.9784    4.2279 C.cat     1 <0>         0.6305
     10 C10        -2.7517   -3.1143    8.4484 C.3       1 <0>        -0.0319
     11 C11         1.3547    1.4153    5.5015 C.3       1 <0>        -0.0918
     12 C12         0.1935   -0.3932    6.7850 C.3       1 <0>        -0.0841
     13 C13         1.9116    0.3681    4.5455 C.3       1 <0>         0.0870
     14 C14        -3.4952   -1.1625    7.0613 C.3       1 <0>         0.2023
     15 C15         0.6811   -1.4322    5.7719 C.3       1 <0>         0.0778
     16 C16        -2.6278   -1.5957    8.2477 C.3       1 <0>        -0.0746
     17 C17         1.1262    0.8207    6.8935 C.3       1 <0>        -0.0681
     18 C18        -3.0221   -0.8459    9.5173 C.3       1 <0>        -0.0944
     19 C19         0.5462    1.8676    7.8426 C.3       1 <0>        -0.0918
     20 C20         1.7689   -4.0083    2.0091 C.3       1 <0>        -0.1192
     21 C21         0.3004   -3.5693    2.0376 C.3       1 <0>        -0.0916
     22 C22         2.1396   -4.8550    3.2204 C.3       1 <0>         0.1883
     23 C23        -0.0078   -2.6730    3.2260 C.3       1 <0>         0.1952
     24 N1         -3.0973   -1.8681    5.8578 N.pl3     1 <0>        -0.7670
     25 N2          1.0754   -0.8353    4.4846 N.am      1 <0>        -0.4509
     26 N3          5.4796   -6.3403    4.1791 N.pl3     1 <0>        -0.8477
     27 N4          3.3733   -6.3549    5.3272 N.pl3     1 <0>        -0.8633
     28 N5          3.5421   -5.2449    3.1960 N.pl3     1 <0>        -0.7419
     29 N6         -1.3760   -2.1385    3.1042 N.pl3     1 <0>        -0.8860
     30 O1          2.9993   -1.9718    6.2928 O.2       1 <0>        -0.5199
     31 O2          1.3411   -1.0305    2.1799 O.2       1 <0>        -0.6131
     32 O3         -2.5366   -4.2300    2.1492 O.2       1 <0>        -0.6576
     33 O4         -3.9323   -2.4104    3.1814 O.2       1 <0>        -0.6482
     34 O5          1.3170   -3.2520    7.1454 O.3       1 <0>        -0.6303
     35 S1         -2.7118   -3.1932    3.1483 S.o2      1 <0>         1.5193
     36 H1         -1.7136   -6.9698    6.0253 H         1 <0>         0.1426
     37 H2         -2.0492   -5.7255    8.1337 H         1 <0>         0.1398
     38 H3         -2.0145   -5.8162    3.8419 H         1 <0>         0.1599
     39 H4         -3.7469   -3.3674    8.8354 H         1 <0>         0.0574
     40 H5         -2.0117   -3.4391    9.1901 H         1 <0>         0.0629
     41 H6          2.0492    2.2615    5.5629 H         1 <0>         0.0614
     42 H7          0.4079    1.8038    5.1048 H         1 <0>         0.0593
     43 H8         -0.8003   -0.0449    6.4717 H         1 <0>         0.0841
     44 H9          0.0668   -0.8506    7.7745 H         1 <0>         0.0679
     45 H10         2.0225    0.8091    3.5494 H         1 <0>         0.0826
     46 H11         2.9105    0.0502    4.8680 H         1 <0>         0.0383
     47 H12        -4.5547   -1.3611    7.2657 H         1 <0>         0.0556
     48 H13        -3.3943   -0.0847    6.8920 H         1 <0>         0.0415
     49 H14        -0.1232   -2.1562    5.6073 H         1 <0>         0.0851
     50 H15        -1.5799   -1.3538    8.0242 H         1 <0>         0.0639
     51 H16         2.0901    0.4983    7.3061 H         1 <0>         0.0584
     52 H17        -2.7058    0.1999    9.4599 H         1 <0>         0.0401
     53 H18        -4.1069   -0.8706    9.6572 H         1 <0>         0.0440
     54 H19        -2.5511   -1.3005   10.3940 H         1 <0>         0.0459
     55 H20        -0.3870    1.5087    8.2868 H         1 <0>         0.0456
     56 H21         1.2507    2.0862    8.6507 H         1 <0>         0.0366
     57 H22         0.3370    2.7982    7.3067 H         1 <0>         0.0474
     58 H23         1.9621   -4.5788    1.0926 H         1 <0>         0.0800
     59 H24         2.4183   -3.1256    1.9878 H         1 <0>         0.0681
     60 H25        -0.3448   -4.4577    2.0448 H         1 <0>         0.0740
     61 H26         0.0666   -3.0218    1.1158 H         1 <0>         0.0631
     62 H27         1.5314   -5.7638    3.2690 H         1 <0>         0.0970
     63 H28         1.9712   -4.2856    4.1400 H         1 <0>         0.0725
     64 H29         0.1003   -3.1895    4.1787 H         1 <0>         0.0839
     65 H30        -3.3042   -1.4652    4.9522 H         1 <0>         0.4531
     66 H31         6.0759   -6.0890    3.3951 H         1 <0>         0.4798
     67 H32         5.9045   -6.8743    4.9336 H         1 <0>         0.4881
     68 H33         2.3892   -6.1071    5.3950 H         1 <0>         0.4801
     69 H34         3.7791   -6.8874    6.0930 H         1 <0>         0.4806
     70 H35         4.1286   -4.9831    2.4022 H         1 <0>         0.4689
     71 H36        -1.5021   -1.1633    3.3956 H         1 <0>         0.4505
     72 H37         2.0308   -3.7759    7.5675 H         1 <0>         0.4443
@<TRIPOS>BOND
     1    1    2 ar
     2    1    3 ar
     3    2    4 ar
     4    3    6 ar
     5    4    5 ar
     6    4   10 1
     7    5    6 ar
     8    5   24 1
     9    6   35 1
    10    7   15 1
    11    7   30 2
    12    7   34 1
    13    8   23 1
    14    8   25 am
    15    8   31 2
    16    9   26 1
    17    9   27 1
    18    9   28 1
    19   10   16 1
    20   11   13 1
    21   11   17 1
    22   12   15 1
    23   12   17 1
    24   13   25 1
    25   14   16 1
    26   14   24 1
    27   15   25 1
    28   16   18 1
    29   17   19 1
    30   20   21 1
    31   20   22 1
    32   21   23 1
    33   22   28 1
    34   23   29 1
    35   29   35 1
    36   32   35 2
    37   33   35 2
    38    1   36 1
    39    2   37 1
    40    3   38 1
    41   10   39 1
    42   10   40 1
    43   11   41 1
    44   11   42 1
    45   12   43 1
    46   12   44 1
    47   13   45 1
    48   13   46 1
    49   14   47 1
    50   14   48 1
    51   15   49 1
    52   16   50 1
    53   17   51 1
    54   18   52 1
    55   18   53 1
    56   18   54 1
    57   19   55 1
    58   19   56 1
    59   19   57 1
    60   20   58 1
    61   20   59 1
    62   21   60 1
    63   21   61 1
    64   22   62 1
    65   22   63 1
    66   23   64 1
    67   24   65 1
    68   26   66 1
    69   26   67 1
    70   27   68 1
    71   27   69 1
    72   28   70 1
    73   29   71 1
    74   34   72 1
@<TRIPOS>MOLECULE
1dwc_ligand_219
   72    74     0     0     0
SMALL
USER_CHARGES

mmff94s_NoEstat = 79.76
@<TRIPOS>ATOM
      1 C1          6.5406    1.4245   -2.2182 C.ar      1 <0>        -0.1945
      2 C2          6.6985    1.8302   -0.8947 C.ar      1 <0>        -0.0294
      3 C3          6.3835    0.0742   -2.5155 C.ar      1 <0>        -0.0143
      4 C4          6.7040    0.8848    0.1410 C.ar      1 <0>        -0.1552
      5 C5          6.5167   -0.4809   -0.1490 C.ar      1 <0>         0.3076
      6 C6          6.3751   -0.8712   -1.4886 C.ar      1 <0>        -0.4908
      7 C7          1.7669    0.8662    1.3280 C.2       1 <0>         0.5994
      8 C8          2.9466   -1.3973   -0.6457 C.2       1 <0>         0.6462
      9 C9          1.3561   -7.4334   -0.9876 C.cat     1 <0>         0.6305
     10 C10         6.8681    1.3449    1.5697 C.3       1 <0>        -0.0319
     11 C11         2.6473    2.2406   -1.5596 C.3       1 <0>        -0.0918
     12 C12         0.4142    1.3633   -0.6780 C.3       1 <0>        -0.0841
     13 C13         2.8059    0.7734   -1.9437 C.3       1 <0>         0.0870
     14 C14         6.4788   -1.0425    2.2496 C.3       1 <0>         0.2023
     15 C15         1.2880    0.3092   -0.0025 C.3       1 <0>         0.0778
     16 C16         7.3211    0.2120    2.5051 C.3       1 <0>        -0.0746
     17 C17         1.2097    2.5950   -1.1463 C.3       1 <0>        -0.0681
     18 C18         8.8220   -0.0713    2.3751 C.3       1 <0>        -0.0944
     19 C19         0.4640    3.3062   -2.2768 C.3       1 <0>        -0.0918
     20 C20         2.0376   -4.1819   -1.4375 C.3       1 <0>        -0.1192
     21 C21         2.4114   -3.0756   -2.4306 C.3       1 <0>        -0.0916
     22 C22         1.0502   -5.1786   -2.0318 C.3       1 <0>         0.1883
     23 C23         3.4544   -2.1251   -1.8653 C.3       1 <0>         0.1952
     24 N1          6.5251   -1.4407    0.8554 N.pl3     1 <0>        -0.7670
     25 N2          2.3949   -0.1309   -0.8598 N.am      1 <0>        -0.4509
     26 N3          0.9863   -8.4016   -0.0599 N.pl3     1 <0>        -0.8477
     27 N4          2.4179   -7.6897   -1.8483 N.pl3     1 <0>        -0.8633
     28 N5          0.6828   -6.2099   -1.0722 N.pl3     1 <0>        -0.7419
     29 N6          4.6097   -2.8934   -1.3678 N.pl3     1 <0>        -0.8860
     30 O1          1.0388    1.2682    2.2234 O.2       1 <0>        -0.5199
     31 O2          3.0377   -1.9312    0.4627 O.2       1 <0>        -0.6131
     32 O3          6.1698   -2.6265   -3.3996 O.2       1 <0>        -0.6576
     33 O4          7.1388   -3.3235   -1.1861 O.2       1 <0>        -0.6482
     34 O5          3.1209    0.8607    1.3898 O.3       1 <0>        -0.6303
     35 S1          6.1736   -2.5573   -1.9508 S.o2      1 <0>         1.5193
     36 H1          6.5435    2.1609   -3.0173 H         1 <0>         0.1426
     37 H2          6.8235    2.8872   -0.6719 H         1 <0>         0.1398
     38 H3          6.2656   -0.2543   -3.5434 H         1 <0>         0.1599
     39 H4          7.5861    2.1725    1.6211 H         1 <0>         0.0574
     40 H5          5.8975    1.7275    1.9104 H         1 <0>         0.0629
     41 H6          3.3139    2.4482   -0.7119 H         1 <0>         0.0614
     42 H7          2.9866    2.8831   -2.3805 H         1 <0>         0.0593
     43 H8         -0.0763    0.8986   -1.5445 H         1 <0>         0.0841
     44 H9         -0.3910    1.6884   -0.0067 H         1 <0>         0.0679
     45 H10         2.1887    0.5331   -2.8174 H         1 <0>         0.0826
     46 H11         3.8474    0.5746   -2.2145 H         1 <0>         0.0383
     47 H12         6.8300   -1.8717    2.8739 H         1 <0>         0.0556
     48 H13         5.4356   -0.8502    2.5290 H         1 <0>         0.0415
     49 H14         0.6719   -0.5636    0.2451 H         1 <0>         0.0851
     50 H15         7.1566    0.5367    3.5400 H         1 <0>         0.0639
     51 H16         1.2711    3.3100   -0.3159 H         1 <0>         0.0584
     52 H17         9.2504    0.4995    1.5459 H         1 <0>         0.0401
     53 H18         9.3470    0.2082    3.2934 H         1 <0>         0.0440
     54 H19         8.9975   -1.1349    2.1879 H         1 <0>         0.0459
     55 H20         0.7912    4.3471   -2.3578 H         1 <0>         0.0456
     56 H21         0.6528    2.8103   -3.2336 H         1 <0>         0.0366
     57 H22        -0.6142    3.2977   -2.0910 H         1 <0>         0.0474
     58 H23         2.9446   -4.7113   -1.1217 H         1 <0>         0.0800
     59 H24         1.5893   -3.7381   -0.5411 H         1 <0>         0.0681
     60 H25         1.5058   -2.5277   -2.7226 H         1 <0>         0.0740
     61 H26         2.8104   -3.5289   -3.3468 H         1 <0>         0.0631
     62 H27         1.4667   -5.6672   -2.9184 H         1 <0>         0.0970
     63 H28         0.1320   -4.6626   -2.3297 H         1 <0>         0.0725
     64 H29         3.7902   -1.3903   -2.5956 H         1 <0>         0.0839
     65 H30         6.3115   -2.3985    0.6051 H         1 <0>         0.4531
     66 H31         0.2183   -8.2576    0.5903 H         1 <0>         0.4798
     67 H32         1.4817   -9.2885   -0.0047 H         1 <0>         0.4881
     68 H33         2.7145   -7.0040   -2.5385 H         1 <0>         0.4801
     69 H34         2.9252   -8.5706   -1.8109 H         1 <0>         0.4806
     70 H35        -0.0925   -6.0509   -0.4270 H         1 <0>         0.4689
     71 H36         4.5044   -3.3037   -0.4338 H         1 <0>         0.4505
     72 H37         3.4503    1.2188    2.2416 H         1 <0>         0.4443
@<TRIPOS>BOND
     1    1    2 ar
     2    1    3 ar
     3    2    4 ar
     4    3    6 ar
     5    4    5 ar
     6    4   10 1
     7    5    6 ar
     8    5   24 1
     9    6   35 1
    10    7   15 1
    11    7   30 2
    12    7   34 1
    13    8   23 1
    14    8   25 am
    15    8   31 2
    16    9   26 1
    17    9   27 1
    18    9   28 1
    19   10   16 1
    20   11   13 1
    21   11   17 1
    22   12   15 1
    23   12   17 1
    24   13   25 1
    25   14   16 1
    26   14   24 1
    27   15   25 1
    28   16   18 1
    29   17   19 1
    30   20   21 1
    31   20   22 1
    32   21   23 1
    33   22   28 1
    34   23   29 1
    35   29   35 1
    36   32   35 2
    37   33   35 2
    38    1   36 1
    39    2   37 1
    40    3   38 1
    41   10   39 1
    42   10   40 1
    43   11   41 1
    44   11   42 1
    45   12   43 1
    46   12   44 1
    47   13   45 1
    48   13   46 1
    49   14   47 1
    50   14   48 1
    51   15   49 1
    52   16   50 1
    53   17   51 1
    54   18   52 1
    55   18   53 1
    56   18   54 1
    57   19   55 1
    58   19   56 1
    59   19   57 1
    60   20   58 1
    61   20   59 1
    62   21   60 1
    63   21   61 1
    64   22   62 1
    65   22   63 1
    66   23   64 1
    67   24   65 1
    68   26   66 1
    69   26   67 1
    70   27   68 1
    71   27   69 1
    72   28   70 1
    73   29   71 1
    74   34   72 1
@<TRIPOS>MOLECULE
1dwc_ligand_220
   72    74     0     0     0
SMALL
USER_CHARGES

mmff94s_NoEstat = 79.81
@<TRIPOS>ATOM
      1 C1          4.9869   -2.2156    2.0944 C.ar      1 <0>        -0.1945
      2 C2          5.6791   -2.0613    3.2937 C.ar      1 <0>        -0.0294
      3 C3          3.8430   -3.0069    2.0508 C.ar      1 <0>        -0.0143
      4 C4          5.2320   -2.7022    4.4581 C.ar      1 <0>        -0.1552
      5 C5          4.0589   -3.4815    4.4288 C.ar      1 <0>         0.3076
      6 C6          3.3849   -3.6375    3.2088 C.ar      1 <0>        -0.4908
      7 C7         -1.2359   -0.6984    0.6725 C.2       1 <0>         0.5994
      8 C8          0.8654   -1.4427    3.2413 C.2       1 <0>         0.6462
      9 C9         -5.2296   -1.5441    4.6444 C.cat     1 <0>         0.6305
     10 C10         5.9911   -2.5161    5.7500 C.3       1 <0>        -0.0319
     11 C11         1.8315    1.4466    1.1834 C.3       1 <0>        -0.0918
     12 C12         0.9831   -0.3423   -0.3484 C.3       1 <0>        -0.0841
     13 C13         1.0260    0.8397    2.3251 C.3       1 <0>         0.0870
     14 C14         4.1652   -3.8339    6.8649 C.3       1 <0>         0.2023
     15 C15         0.2462   -1.0009    0.8207 C.3       1 <0>         0.0778
     16 C16         5.6794   -3.6141    6.7799 C.3       1 <0>        -0.0746
     17 C17         1.1635    1.1707   -0.1661 C.3       1 <0>        -0.0681
     18 C18         6.4292   -4.9155    6.4729 C.3       1 <0>        -0.0944
     19 C19         1.9862    1.7609   -1.3098 C.3       1 <0>        -0.0918
     20 C20        -2.2331   -3.6727    3.9110 C.3       1 <0>        -0.1192
     21 C21        -1.3133   -2.4479    3.9716 C.3       1 <0>        -0.0916
     22 C22        -3.5726   -3.4201    4.5920 C.3       1 <0>         0.1883
     23 C23        -0.0078   -2.6730    3.2260 C.3       1 <0>         0.1952
     24 N1          3.5964   -4.1342    5.5646 N.pl3     1 <0>        -0.7670
     25 N2          0.7744   -0.5925    2.1333 N.am      1 <0>        -0.4509
     26 N3         -5.9145   -0.5116    4.0122 N.pl3     1 <0>        -0.8477
     27 N4         -5.4713   -1.7931    5.9911 N.pl3     1 <0>        -0.8633
     28 N5         -4.3046   -2.3352    3.9546 N.pl3     1 <0>        -0.7419
     29 N6          0.7961   -3.6905    3.9267 N.pl3     1 <0>        -0.8860
     30 O1         -1.9090   -0.9539   -0.3149 O.2       1 <0>        -0.5199
     31 O2          1.6103   -1.2468    4.2054 O.2       1 <0>        -0.6131
     32 O3          1.5564   -4.6635    1.6664 O.2       1 <0>        -0.6576
     33 O4          2.1832   -5.8521    3.7922 O.2       1 <0>        -0.6482
     34 O5         -1.7163   -0.0998    1.7897 O.3       1 <0>        -0.6303
     35 S1          1.9328   -4.6215    3.0666 S.o2      1 <0>         1.5193
     36 H1          5.3415   -1.7217    1.1937 H         1 <0>         0.1426
     37 H2          6.5736   -1.4435    3.3177 H         1 <0>         0.1398
     38 H3          3.2989   -3.1393    1.1209 H         1 <0>         0.1599
     39 H4          7.0702   -2.4911    5.5552 H         1 <0>         0.0574
     40 H5          5.7075   -1.5407    6.1657 H         1 <0>         0.0629
     41 H6          1.9320    2.5271    1.3399 H         1 <0>         0.0614
     42 H7          2.8448    1.0248    1.1881 H         1 <0>         0.0593
     43 H8          1.9753   -0.8057   -0.4365 H         1 <0>         0.0841
     44 H9          0.4607   -0.5403   -1.2930 H         1 <0>         0.0679
     45 H10         1.5496    1.0140    3.2709 H         1 <0>         0.0826
     46 H11         0.0484    1.3304    2.4051 H         1 <0>         0.0383
     47 H12         3.9365   -4.6520    7.5569 H         1 <0>         0.0556
     48 H13         3.6831   -2.9326    7.2632 H         1 <0>         0.0415
     49 H14         0.3330   -2.0869    0.7143 H         1 <0>         0.0851
     50 H15         6.0375   -3.2752    7.7599 H         1 <0>         0.0639
     51 H16         0.1795    1.6553   -0.1825 H         1 <0>         0.0584
     52 H17         6.9364   -4.8479    5.5058 H         1 <0>         0.0401
     53 H18         7.1802   -5.1172    7.2425 H         1 <0>         0.0440
     54 H19         5.7348   -5.7603    6.4392 H         1 <0>         0.0459
     55 H20         1.9407    1.1129   -2.1902 H         1 <0>         0.0456
     56 H21         1.6048    2.7479   -1.5883 H         1 <0>         0.0366
     57 H22         3.0342    1.8673   -1.0143 H         1 <0>         0.0474
     58 H23        -2.4032   -3.9506    2.8639 H         1 <0>         0.0800
     59 H24        -1.7473   -4.5245    4.4007 H         1 <0>         0.0681
     60 H25        -1.1204   -2.1894    5.0211 H         1 <0>         0.0740
     61 H26        -1.8263   -1.5854    3.5275 H         1 <0>         0.0631
     62 H27        -3.4379   -3.1690    5.6489 H         1 <0>         0.0970
     63 H28        -4.1962   -4.3179    4.5344 H         1 <0>         0.0725
     64 H29        -0.1638   -2.9774    2.1921 H         1 <0>         0.0839
     65 H30         2.7093   -4.6197    5.5108 H         1 <0>         0.4531
     66 H31        -5.7687   -0.2919    3.0305 H         1 <0>         0.4798
     67 H32        -6.5851    0.0593    4.5215 H         1 <0>         0.4881
     68 H33        -4.9880   -2.5400    6.4842 H         1 <0>         0.4801
     69 H34        -6.1390   -1.2353    6.5182 H         1 <0>         0.4806
     70 H35        -4.1486   -2.1282    2.9669 H         1 <0>         0.4689
     71 H36         0.9382   -3.5340    4.9302 H         1 <0>         0.4505
     72 H37        -2.6725    0.1056    1.7130 H         1 <0>         0.4443
@<TRIPOS>BOND
     1    1    2 ar
     2    1    3 ar
     3    2    4 ar
     4    3    6 ar
     5    4    5 ar
     6    4   10 1
     7    5    6 ar
     8    5   24 1
     9    6   35 1
    10    7   15 1
    11    7   30 2
    12    7   34 1
    13    8   23 1
    14    8   25 am
    15    8   31 2
    16    9   26 1
    17    9   27 1
    18    9   28 1
    19   10   16 1
    20   11   13 1
    21   11   17 1
    22   12   15 1
    23   12   17 1
    24   13   25 1
    25   14   16 1
    26   14   24 1
    27   15   25 1
    28   16   18 1
    29   17   19 1
    30   20   21 1
    31   20   22 1
    32   21   23 1
    33   22   28 1
    34   23   29 1
    35   29   35 1
    36   32   35 2
    37   33   35 2
    38    1   36 1
    39    2   37 1
    40    3   38 1
    41   10   39 1
    42   10   40 1
    43   11   41 1
    44   11   42 1
    45   12   43 1
    46   12   44 1
    47   13   45 1
    48   13   46 1
    49   14   47 1
    50   14   48 1
    51   15   49 1
    52   16   50 1
    53   17   51 1
    54   18   52 1
    55   18   53 1
    56   18   54 1
    57   19   55 1
    58   19   56 1
    59   19   57 1
    60   20   58 1
    61   20   59 1
    62   21   60 1
    63   21   61 1
    64   22   62 1
    65   22   63 1
    66   23   64 1
    67   24   65 1
    68   26   66 1
    69   26   67 1
    70   27   68 1
    71   27   69 1
    72   28   70 1
    73   29   71 1
    74   34   72 1
@<TRIPOS>MOLECULE
1dwc_ligand_221
   72    74     0     0     0
SMALL
USER_CHARGES

mmff94s_NoEstat = 79.85
@<TRIPOS>ATOM
      1 C1         -1.6990   -6.3363    0.7867 C.ar      1 <0>        -0.1945
      2 C2         -2.5886   -6.9109    1.6920 C.ar      1 <0>        -0.0294
      3 C3         -0.5076   -5.7805    1.2430 C.ar      1 <0>        -0.0143
      4 C4         -2.2925   -6.9295    3.0627 C.ar      1 <0>        -0.1552
      5 C5         -1.0757   -6.3947    3.5292 C.ar      1 <0>         0.3076
      6 C6         -0.2004   -5.8068    2.6044 C.ar      1 <0>        -0.4908
      7 C7         -1.1116    1.0220    1.9825 C.2       1 <0>         0.5994
      8 C8          0.8654   -1.4427    3.2413 C.2       1 <0>         0.6462
      9 C9         -3.2174   -1.4380    8.5188 C.cat     1 <0>         0.6305
     10 C10        -3.2655   -7.5641    4.0272 C.3       1 <0>        -0.0319
     11 C11         2.1388    0.2326    0.2266 C.3       1 <0>        -0.0918
     12 C12        -0.3237   -0.1114   -0.0639 C.3       1 <0>        -0.0841
     13 C13         1.9602    0.1751    1.7384 C.3       1 <0>         0.0870
     14 C14        -1.5546   -7.1585    5.8221 C.3       1 <0>         0.2023
     15 C15        -0.4871   -0.2577    1.4512 C.3       1 <0>         0.0778
     16 C16        -3.0463   -7.0996    5.4762 C.3       1 <0>        -0.0746
     17 C17         0.8749    0.7635   -0.4549 C.3       1 <0>        -0.0681
     18 C18        -3.6360   -5.7068    5.7256 C.3       1 <0>        -0.0944
     19 C19         1.0498    0.7979   -1.9719 C.3       1 <0>        -0.0918
     20 C20        -1.0866   -2.1427    5.4567 C.3       1 <0>        -0.1192
     21 C21        -1.3133   -2.4479    3.9716 C.3       1 <0>        -0.0916
     22 C22        -2.3970   -1.9935    6.2196 C.3       1 <0>         0.1883
     23 C23        -0.0078   -2.6730    3.2260 C.3       1 <0>         0.1952
     24 N1         -0.7588   -6.3922    4.8818 N.pl3     1 <0>        -0.7670
     25 N2          0.7744   -0.5925    2.1333 N.am      1 <0>        -0.4509
     26 N3         -2.9736   -1.1414    9.8558 N.pl3     1 <0>        -0.8477
     27 N4         -4.5309   -1.4955    8.0658 N.pl3     1 <0>        -0.8633
     28 N5         -2.1703   -1.6789    7.6229 N.pl3     1 <0>        -0.7419
     29 N6          0.7961   -3.6905    3.9267 N.pl3     1 <0>        -0.8860
     30 O1         -0.4892    1.9717    2.4341 O.2       1 <0>        -0.5199
     31 O2          1.6103   -1.2468    4.2054 O.2       1 <0>        -0.6131
     32 O3          1.9670   -5.9819    4.0350 O.2       1 <0>        -0.6576
     33 O4          2.0121   -4.6764    1.8861 O.2       1 <0>        -0.6482
     34 O5         -2.4629    0.9691    1.8908 O.3       1 <0>        -0.6303
     35 S1          1.3247   -5.0804    3.0977 S.o2      1 <0>         1.5193
     36 H1         -1.9365   -6.3191   -0.2735 H         1 <0>         0.1426
     37 H2         -3.5185   -7.3403    1.3269 H         1 <0>         0.1398
     38 H3          0.1904   -5.3247    0.5478 H         1 <0>         0.1599
     39 H4         -4.2967   -7.3458    3.7237 H         1 <0>         0.0574
     40 H5         -3.1279   -8.6516    3.9724 H         1 <0>         0.0629
     41 H6          2.9950    0.8726   -0.0171 H         1 <0>         0.0614
     42 H7          2.3692   -0.7717   -0.1514 H         1 <0>         0.0593
     43 H8         -0.1827   -1.1122   -0.4945 H         1 <0>         0.0841
     44 H9         -1.2391    0.2955   -0.5121 H         1 <0>         0.0679
     45 H10         2.8610   -0.2490    2.1940 H         1 <0>         0.0826
     46 H11         1.8403    1.1858    2.1470 H         1 <0>         0.0383
     47 H12        -1.3823   -6.7782    6.8351 H         1 <0>         0.0556
     48 H13        -1.2132   -8.2010    5.8085 H         1 <0>         0.0415
     49 H14        -1.2253   -1.0427    1.6435 H         1 <0>         0.0851
     50 H15        -3.5850   -7.7865    6.1406 H         1 <0>         0.0639
     51 H16         0.6944    1.7923   -0.1196 H         1 <0>         0.0584
     52 H17        -3.9809   -5.2618    4.7875 H         1 <0>         0.0401
     53 H18        -4.4862   -5.7664    6.4117 H         1 <0>         0.0440
     54 H19        -2.8843   -5.0443    6.1651 H         1 <0>         0.0459
     55 H20         0.1097    0.5485   -2.4730 H         1 <0>         0.0456
     56 H21         1.3618    1.7937   -2.3005 H         1 <0>         0.0366
     57 H22         1.8100    0.0770   -2.2875 H         1 <0>         0.0474
     58 H23        -0.4913   -2.9455    5.9081 H         1 <0>         0.0800
     59 H24        -0.5143   -1.2136    5.5600 H         1 <0>         0.0681
     60 H25        -1.8840   -1.6286    3.5148 H         1 <0>         0.0740
     61 H26        -1.9315   -3.3495    3.8758 H         1 <0>         0.0631
     62 H27        -2.9930   -2.9100    6.1652 H         1 <0>         0.0970
     63 H28        -2.9889   -1.1790    5.7901 H         1 <0>         0.0725
     64 H29        -0.1638   -2.9774    2.1921 H         1 <0>         0.0839
     65 H30         0.1588   -6.0654    5.1587 H         1 <0>         0.4531
     66 H31        -2.0306   -1.0905   10.2318 H         1 <0>         0.4798
     67 H32        -3.7410   -0.9681   10.5009 H         1 <0>         0.4881
     68 H33        -4.7448   -1.7097    7.0948 H         1 <0>         0.4801
     69 H34        -5.3125   -1.3238    8.6938 H         1 <0>         0.4806
     70 H35        -1.2168   -1.6295    7.9850 H         1 <0>         0.4689
     71 H36         1.3354   -3.3564    4.7325 H         1 <0>         0.4505
     72 H37        -2.8855    1.7865    2.2310 H         1 <0>         0.4443
@<TRIPOS>BOND
     1    1    2 ar
     2    1    3 ar
     3    2    4 ar
     4    3    6 ar
     5    4    5 ar
     6    4   10 1
     7    5    6 ar
     8    5   24 1
     9    6   35 1
    10    7   15 1
    11    7   30 2
    12    7   34 1
    13    8   23 1
    14    8   25 am
    15    8   31 2
    16    9   26 1
    17    9   27 1
    18    9   28 1
    19   10   16 1
    20   11   13 1
    21   11   17 1
    22   12   15 1
    23   12   17 1
    24   13   25 1
    25   14   16 1
    26   14   24 1
    27   15   25 1
    28   16   18 1
    29   17   19 1
    30   20   21 1
    31   20   22 1
    32   21   23 1
    33   22   28 1
    34   23   29 1
    35   29   35 1
    36   32   35 2
    37   33   35 2
    38    1   36 1
    39    2   37 1
    40    3   38 1
    41   10   39 1
    42   10   40 1
    43   11   41 1
    44   11   42 1
    45   12   43 1
    46   12   44 1
    47   13   45 1
    48   13   46 1
    49   14   47 1
    50   14   48 1
    51   15   49 1
    52   16   50 1
    53   17   51 1
    54   18   52 1
    55   18   53 1
    56   18   54 1
    57   19   55 1
    58   19   56 1
    59   19   57 1
    60   20   58 1
    61   20   59 1
    62   21   60 1
    63   21   61 1
    64   22   62 1
    65   22   63 1
    66   23   64 1
    67   24   65 1
    68   26   66 1
    69   26   67 1
    70   27   68 1
    71   27   69 1
    72   28   70 1
    73   29   71 1
    74   34   72 1
@<TRIPOS>MOLECULE
1dwc_ligand_222
   72    74     0     0     0
SMALL
USER_CHARGES

mmff94s_NoEstat = 79.86
@<TRIPOS>ATOM
      1 C1          1.6845   -5.9778    0.1844 C.ar      1 <0>        -0.1945
      2 C2          0.6520   -5.4496    0.9566 C.ar      1 <0>        -0.0294
      3 C3          1.9606   -5.4374   -1.0681 C.ar      1 <0>        -0.0143
      4 C4         -0.1093   -4.3725    0.4806 C.ar      1 <0>        -0.1552
      5 C5          0.1450   -3.8386   -0.7984 C.ar      1 <0>         0.3076
      6 C6          1.1982   -4.3739   -1.5539 C.ar      1 <0>        -0.4908
      7 C7          2.4038   -0.4910    2.4030 C.2       1 <0>         0.5994
      8 C8          2.9466   -1.3973   -0.6457 C.2       1 <0>         0.6462
      9 C9          8.4655   -1.6847   -3.4911 C.cat     1 <0>         0.6305
     10 C10        -1.2292   -3.8175    1.3278 C.3       1 <0>        -0.0319
     11 C11         3.9178   -3.4419    2.3602 C.3       1 <0>        -0.0918
     12 C12         4.8012   -1.0545    2.5913 C.3       1 <0>        -0.0841
     13 C13         4.0430   -3.0960    0.8803 C.3       1 <0>         0.0870
     14 C14        -1.7931   -2.3309   -0.6108 C.3       1 <0>         0.2023
     15 C15         3.6790   -0.7248    1.6100 C.3       1 <0>         0.0778
     16 C16        -1.5940   -2.3850    0.9075 C.3       1 <0>        -0.0746
     17 C17         4.6242   -2.4243    3.2705 C.3       1 <0>        -0.0681
     18 C18        -2.8431   -1.9049    1.6414 C.3       1 <0>        -0.0944
     19 C19         5.9763   -2.9527    3.7531 C.3       1 <0>        -0.0918
     20 C20         5.7415   -1.0578   -1.6401 C.3       1 <0>        -0.1192
     21 C21         4.5564   -1.3488   -2.5679 C.3       1 <0>        -0.0916
     22 C22         6.8115   -0.2136   -2.3213 C.3       1 <0>         0.1883
     23 C23         3.4544   -2.1251   -1.8653 C.3       1 <0>         0.1952
     24 N1         -0.5924   -2.7711   -1.2958 N.pl3     1 <0>        -0.7670
     25 N2          3.5192   -1.7560    0.5781 N.am      1 <0>        -0.4509
     26 N3          8.9413   -2.2972   -4.6458 N.pl3     1 <0>        -0.8477
     27 N4          9.1326   -1.8934   -2.2888 N.pl3     1 <0>        -0.8633
     28 N5          7.3321   -0.8648   -3.5148 N.pl3     1 <0>        -0.7419
     29 N6          2.2741   -2.2179   -2.7432 N.pl3     1 <0>        -0.8860
     30 O1          2.2729    0.3351    3.2940 O.2       1 <0>        -0.5199
     31 O2          2.0685   -0.5400   -0.7710 O.2       1 <0>        -0.6131
     32 O3          2.6686   -4.5798   -3.6918 O.2       1 <0>        -0.6576
     33 O4          0.3811   -3.5494   -3.8650 O.2       1 <0>        -0.6482
     34 O5          1.4223   -1.3294    1.9894 O.3       1 <0>        -0.6303
     35 S1          1.6226   -3.7401   -3.1398 S.o2      1 <0>         1.5193
     36 H1          2.2754   -6.8081    0.5612 H         1 <0>         0.1426
     37 H2          0.4453   -5.8762    1.9353 H         1 <0>         0.1398
     38 H3          2.7663   -5.8367   -1.6758 H         1 <0>         0.1599
     39 H4         -2.0994   -4.4781    1.2245 H         1 <0>         0.0574
     40 H5         -0.9335   -3.8165    2.3842 H         1 <0>         0.0629
     41 H6          2.8510   -3.4591    2.6203 H         1 <0>         0.0614
     42 H7          4.2939   -4.4553    2.5428 H         1 <0>         0.0593
     43 H8          5.7524   -1.0436    2.0413 H         1 <0>         0.0841
     44 H9          4.8832   -0.2779    3.3625 H         1 <0>         0.0679
     45 H10         5.0934   -3.1114    0.5668 H         1 <0>         0.0826
     46 H11         3.5122   -3.8428    0.2819 H         1 <0>         0.0383
     47 H12        -2.6365   -2.9647   -0.9116 H         1 <0>         0.0556
     48 H13        -2.0279   -1.3080   -0.9257 H         1 <0>         0.0415
     49 H14         3.9015    0.2290    1.1168 H         1 <0>         0.0851
     50 H15        -0.7654   -1.7164    1.1777 H         1 <0>         0.0639
     51 H16         4.0032   -2.2947    4.1661 H         1 <0>         0.0584
     52 H17        -2.9604   -0.8225    1.5328 H         1 <0>         0.0401
     53 H18        -3.7366   -2.3905    1.2379 H         1 <0>         0.0440
     54 H19        -2.7758   -2.1387    2.7081 H         1 <0>         0.0459
     55 H20         5.8782   -3.4157    4.7396 H         1 <0>         0.0456
     56 H21         6.3665   -3.7022    3.0580 H         1 <0>         0.0366
     57 H22         6.7034   -2.1384    3.8257 H         1 <0>         0.0474
     58 H23         5.3842   -0.5386   -0.7426 H         1 <0>         0.0800
     59 H24         6.1956   -2.0004   -1.3135 H         1 <0>         0.0681
     60 H25         4.9119   -1.8947   -3.4517 H         1 <0>         0.0740
     61 H26         4.1396   -0.4017   -2.9334 H         1 <0>         0.0631
     62 H27         7.6493   -0.0157   -1.6451 H         1 <0>         0.0970
     63 H28         6.3893    0.7487   -2.6278 H         1 <0>         0.0725
     64 H29         3.7703   -3.1244   -1.5692 H         1 <0>         0.0839
     65 H30        -0.4235   -2.4715   -2.2481 H         1 <0>         0.4531
     66 H31         8.4853   -2.1751   -5.5460 H         1 <0>         0.4798
     67 H32         9.7660   -2.8925   -4.6196 H         1 <0>         0.4881
     68 H33         8.8117   -1.4610   -1.4259 H         1 <0>         0.4801
     69 H34         9.9599   -2.4833   -2.2412 H         1 <0>         0.4806
     70 H35         6.8639   -0.7306   -4.4123 H         1 <0>         0.4689
     71 H36         1.6613   -1.3957   -2.7560 H         1 <0>         0.4505
     72 H37         0.5902   -1.1952    2.4913 H         1 <0>         0.4443
@<TRIPOS>BOND
     1    1    2 ar
     2    1    3 ar
     3    2    4 ar
     4    3    6 ar
     5    4    5 ar
     6    4   10 1
     7    5    6 ar
     8    5   24 1
     9    6   35 1
    10    7   15 1
    11    7   30 2
    12    7   34 1
    13    8   23 1
    14    8   25 am
    15    8   31 2
    16    9   26 1
    17    9   27 1
    18    9   28 1
    19   10   16 1
    20   11   13 1
    21   11   17 1
    22   12   15 1
    23   12   17 1
    24   13   25 1
    25   14   16 1
    26   14   24 1
    27   15   25 1
    28   16   18 1
    29   17   19 1
    30   20   21 1
    31   20   22 1
    32   21   23 1
    33   22   28 1
    34   23   29 1
    35   29   35 1
    36   32   35 2
    37   33   35 2
    38    1   36 1
    39    2   37 1
    40    3   38 1
    41   10   39 1
    42   10   40 1
    43   11   41 1
    44   11   42 1
    45   12   43 1
    46   12   44 1
    47   13   45 1
    48   13   46 1
    49   14   47 1
    50   14   48 1
    51   15   49 1
    52   16   50 1
    53   17   51 1
    54   18   52 1
    55   18   53 1
    56   18   54 1
    57   19   55 1
    58   19   56 1
    59   19   57 1
    60   20   58 1
    61   20   59 1
    62   21   60 1
    63   21   61 1
    64   22   62 1
    65   22   63 1
    66   23   64 1
    67   24   65 1
    68   26   66 1
    69   26   67 1
    70   27   68 1
    71   27   69 1
    72   28   70 1
    73   29   71 1
    74   34   72 1
@<TRIPOS>MOLECULE
1dwc_ligand_223
   72    74     0     0     0
SMALL
USER_CHARGES

mmff94s_NoEstat = 79.87
@<TRIPOS>ATOM
      1 C1         -3.1525   -6.1500    2.7247 C.ar      1 <0>        -0.1945
      2 C2         -3.7220   -6.2210    3.9943 C.ar      1 <0>        -0.0294
      3 C3         -1.7958   -5.8721    2.5879 C.ar      1 <0>        -0.0143
      4 C4         -2.9366   -6.0100    5.1368 C.ar      1 <0>        -0.1552
      5 C5         -1.5569   -5.7567    5.0078 C.ar      1 <0>         0.3076
      6 C6         -1.0052   -5.6737    3.7210 C.ar      1 <0>        -0.4908
      7 C7          1.0326   -1.5891   -0.1526 C.2       1 <0>         0.5994
      8 C8          0.8654   -1.4427    3.2413 C.2       1 <0>         0.6462
      9 C9         -3.7312   -0.3416    0.0935 C.cat     1 <0>         0.6305
     10 C10        -3.5704   -6.0992    6.5042 C.3       1 <0>        -0.0319
     11 C11         4.0928   -0.4819    1.7658 C.3       1 <0>        -0.0918
     12 C12         3.2369   -2.4756    0.5172 C.3       1 <0>        -0.0841
     13 C13         2.6673   -0.1389    2.1793 C.3       1 <0>         0.0870
     14 C14        -1.2626   -5.8045    7.4534 C.3       1 <0>         0.2023
     15 C15         1.8171   -2.1794    1.0075 C.3       1 <0>         0.0778
     16 C16        -2.7344   -5.3990    7.5879 C.3       1 <0>        -0.0746
     17 C17         4.1123   -1.2187    0.4240 C.3       1 <0>        -0.0681
     18 C18        -2.9130   -3.8769    7.5534 C.3       1 <0>        -0.0944
     19 C19         5.5413   -1.5810    0.0243 C.3       1 <0>        -0.0918
     20 C20        -2.1115   -1.2711    3.3990 C.3       1 <0>        -0.1192
     21 C21        -1.3133   -2.4479    3.9716 C.3       1 <0>        -0.0916
     22 C22        -2.5427   -1.5156    1.9582 C.3       1 <0>         0.1883
     23 C23        -0.0078   -2.6730    3.2260 C.3       1 <0>         0.1952
     24 N1         -0.7555   -5.5363    6.1210 N.pl3     1 <0>        -0.7670
     25 N2          1.7920   -1.3156    2.2000 N.am      1 <0>        -0.4509
     26 N3         -4.4336    0.7533   -0.3991 N.pl3     1 <0>        -0.8477
     27 N4         -3.4755   -1.4179   -0.7493 N.pl3     1 <0>        -0.8633
     28 N5         -3.2779   -0.3818    1.4164 N.pl3     1 <0>        -0.7419
     29 N6          0.7961   -3.6905    3.9267 N.pl3     1 <0>        -0.8860
     30 O1          0.8941   -0.3947   -0.3706 O.2       1 <0>        -0.5199
     31 O2          0.7326   -0.6231    4.1542 O.2       1 <0>        -0.6131
     32 O3          1.4689   -6.1338    4.3859 O.2       1 <0>        -0.6576
     33 O4          0.9378   -5.4244    2.0325 O.2       1 <0>        -0.6482
     34 O5          0.4997   -2.5717   -0.9193 O.3       1 <0>        -0.6303
     35 S1          0.6998   -5.3249    3.4597 S.o2      1 <0>         1.5193
     36 H1         -3.7672   -6.3081    1.8427 H         1 <0>         0.1426
     37 H2         -4.7835   -6.4358    4.0916 H         1 <0>         0.1398
     38 H3         -1.3423   -5.8084    1.6037 H         1 <0>         0.1599
     39 H4         -4.5789   -5.6685    6.4833 H         1 <0>         0.0574
     40 H5         -3.6702   -7.1626    6.7568 H         1 <0>         0.0629
     41 H6          4.6862    0.4377    1.6990 H         1 <0>         0.0614
     42 H7          4.5556   -1.1085    2.5390 H         1 <0>         0.0593
     43 H8          3.7056   -3.1781    1.2199 H         1 <0>         0.0841
     44 H9          3.2100   -2.9795   -0.4573 H         1 <0>         0.0679
     45 H10         2.6813    0.3462    3.1608 H         1 <0>         0.0826
     46 H11         2.2276    0.5771    1.4744 H         1 <0>         0.0383
     47 H12        -0.6505   -5.2688    8.1875 H         1 <0>         0.0556
     48 H13        -1.1538   -6.8753    7.6654 H         1 <0>         0.0415
     49 H14         1.3264   -3.1308    1.2358 H         1 <0>         0.0851
     50 H15        -3.0985   -5.7306    8.5681 H         1 <0>         0.0639
     51 H16         3.7098   -0.5563   -0.3523 H         1 <0>         0.0584
     52 H17        -3.4985   -3.5784    6.6787 H         1 <0>         0.0401
     53 H18        -3.4337   -3.5305    8.4511 H         1 <0>         0.0440
     54 H19        -1.9410   -3.3769    7.5042 H         1 <0>         0.0459
     55 H20         5.5642   -2.5489   -0.4852 H         1 <0>         0.0456
     56 H21         5.9547   -0.8262   -0.6513 H         1 <0>         0.0366
     57 H22         6.1838   -1.6417    0.9078 H         1 <0>         0.0474
     58 H23        -2.9980   -1.0942    4.0198 H         1 <0>         0.0800
     59 H24        -1.5025   -0.3604    3.4316 H         1 <0>         0.0681
     60 H25        -1.9335   -3.3536    3.9489 H         1 <0>         0.0740
     61 H26        -1.0849   -2.2531    5.0271 H         1 <0>         0.0631
     62 H27        -3.1767   -2.4047    1.8804 H         1 <0>         0.0970
     63 H28        -1.6627   -1.6712    1.3260 H         1 <0>         0.0725
     64 H29        -0.1638   -2.9774    2.1921 H         1 <0>         0.0839
     65 H30         0.2422   -5.4334    5.9808 H         1 <0>         0.4531
     66 H31        -4.6452    1.5611    0.1804 H         1 <0>         0.4798
     67 H32        -4.7603    0.7741   -1.3624 H         1 <0>         0.4881
     68 H33        -2.9649   -2.2343   -0.4217 H         1 <0>         0.4801
     69 H34        -3.7917   -1.4164   -1.7161 H         1 <0>         0.4806
     70 H35        -3.4808    0.4232    2.0108 H         1 <0>         0.4689
     71 H36         1.6533   -3.3509    4.3757 H         1 <0>         0.4505
     72 H37        -0.0129   -2.2104   -1.6737 H         1 <0>         0.4443
@<TRIPOS>BOND
     1    1    2 ar
     2    1    3 ar
     3    2    4 ar
     4    3    6 ar
     5    4    5 ar
     6    4   10 1
     7    5    6 ar
     8    5   24 1
     9    6   35 1
    10    7   15 1
    11    7   30 2
    12    7   34 1
    13    8   23 1
    14    8   25 am
    15    8   31 2
    16    9   26 1
    17    9   27 1
    18    9   28 1
    19   10   16 1
    20   11   13 1
    21   11   17 1
    22   12   15 1
    23   12   17 1
    24   13   25 1
    25   14   16 1
    26   14   24 1
    27   15   25 1
    28   16   18 1
    29   17   19 1
    30   20   21 1
    31   20   22 1
    32   21   23 1
    33   22   28 1
    34   23   29 1
    35   29   35 1
    36   32   35 2
    37   33   35 2
    38    1   36 1
    39    2   37 1
    40    3   38 1
    41   10   39 1
    42   10   40 1
    43   11   41 1
    44   11   42 1
    45   12   43 1
    46   12   44 1
    47   13   45 1
    48   13   46 1
    49   14   47 1
    50   14   48 1
    51   15   49 1
    52   16   50 1
    53   17   51 1
    54   18   52 1
    55   18   53 1
    56   18   54 1
    57   19   55 1
    58   19   56 1
    59   19   57 1
    60   20   58 1
    61   20   59 1
    62   21   60 1
    63   21   61 1
    64   22   62 1
    65   22   63 1
    66   23   64 1
    67   24   65 1
    68   26   66 1
    69   26   67 1
    70   27   68 1
    71   27   69 1
    72   28   70 1
    73   29   71 1
    74   34   72 1
@<TRIPOS>MOLECULE
1dwc_ligand_224
   72    74     0     0     0
SMALL
USER_CHARGES

mmff94s_NoEstat = 79.90
@<TRIPOS>ATOM
      1 C1         -1.5516   -4.4277    7.3298 C.ar      1 <0>        -0.1945
      2 C2         -2.3348   -5.5104    6.9352 C.ar      1 <0>        -0.0294
      3 C3         -1.5385   -3.2654    6.5644 C.ar      1 <0>        -0.0143
      4 C4         -3.1142   -5.4347    5.7720 C.ar      1 <0>        -0.1552
      5 C5         -3.0840   -4.2723    4.9761 C.ar      1 <0>         0.3076
      6 C6         -2.3015   -3.1877    5.3982 C.ar      1 <0>        -0.4908
      7 C7          2.9762   -3.0374    5.3790 C.2       1 <0>         0.5994
      8 C8          0.8654   -1.4427    3.2413 C.2       1 <0>         0.6462
      9 C9          1.4604   -6.7192    4.6765 C.cat     1 <0>         0.6305
     10 C10        -3.9512   -6.6204    5.3554 C.3       1 <0>        -0.0319
     11 C11         2.4006    0.6688    5.8299 C.3       1 <0>        -0.0918
     12 C12         1.7620   -1.5078    6.8886 C.3       1 <0>        -0.0841
     13 C13         2.4565   -0.0177    4.4711 C.3       1 <0>         0.0870
     14 C14        -4.5113   -5.3376    3.2753 C.3       1 <0>         0.2023
     15 C15         1.7319   -2.1748    5.5110 C.3       1 <0>         0.0778
     16 C16        -5.0831   -6.2018    4.4040 C.3       1 <0>        -0.0746
     17 C17         2.7265   -0.3161    6.9557 C.3       1 <0>        -0.0681
     18 C18        -5.8039   -7.4257    3.8454 C.3       1 <0>        -0.0944
     19 C19         2.6468    0.3706    8.3178 C.3       1 <0>        -0.0918
     20 C20        -0.5404   -4.8511    2.0458 C.3       1 <0>        -0.1192
     21 C21         0.3004   -3.5693    2.0376 C.3       1 <0>        -0.0916
     22 C22        -0.3597   -5.6492    3.3311 C.3       1 <0>         0.1883
     23 C23        -0.0078   -2.6730    3.2260 C.3       1 <0>         0.1952
     24 N1         -3.8463   -4.1684    3.8190 N.pl3     1 <0>        -0.7670
     25 N2          1.5999   -1.2067    4.4091 N.am      1 <0>        -0.4509
     26 N3          2.7946   -7.0727    4.8490 N.pl3     1 <0>        -0.8477
     27 N4          0.5364   -7.0602    5.6583 N.pl3     1 <0>        -0.8633
     28 N5          1.0303   -6.0293    3.5380 N.pl3     1 <0>        -0.7419
     29 N6         -1.3760   -2.1385    3.1042 N.pl3     1 <0>        -0.8860
     30 O1          3.3023   -3.9224    6.1560 O.2       1 <0>        -0.5199
     31 O2          0.8891   -0.7105    2.2483 O.2       1 <0>        -0.6131
     32 O3         -3.5960   -1.3232    4.1243 O.2       1 <0>        -0.6576
     33 O4         -1.4314   -0.7555    5.2719 O.2       1 <0>        -0.6482
     34 O5          3.6845   -2.6904    4.2766 O.3       1 <0>        -0.6303
     35 S1         -2.2397   -1.6774    4.4970 S.o2      1 <0>         1.5193
     36 H1         -0.9549   -4.4896    8.2356 H         1 <0>         0.1426
     37 H2         -2.3412   -6.4135    7.5409 H         1 <0>         0.1398
     38 H3         -0.9370   -2.4135    6.8653 H         1 <0>         0.1599
     39 H4         -3.2943   -7.3516    4.8675 H         1 <0>         0.0574
     40 H5         -4.3865   -7.1001    6.2407 H         1 <0>         0.0629
     41 H6          3.1075    1.5068    5.8464 H         1 <0>         0.0614
     42 H7          1.3987    1.0896    5.9845 H         1 <0>         0.0593
     43 H8          0.7490   -1.1528    7.1229 H         1 <0>         0.0841
     44 H9          2.0241   -2.2386    7.6642 H         1 <0>         0.0679
     45 H10         2.1762    0.6981    3.6915 H         1 <0>         0.0826
     46 H11         3.4796   -0.3461    4.2516 H         1 <0>         0.0383
     47 H12        -3.7986   -5.9137    2.6721 H         1 <0>         0.0556
     48 H13        -5.3138   -5.0110    2.6047 H         1 <0>         0.0415
     49 H14         0.8899   -2.8738    5.4853 H         1 <0>         0.0851
     50 H15        -5.8148   -5.6064    4.9667 H         1 <0>         0.0639
     51 H16         3.7543   -0.6771    6.8272 H         1 <0>         0.0584
     52 H17        -6.7464   -7.1341    3.3725 H         1 <0>         0.0401
     53 H18        -5.1841   -7.9286    3.0971 H         1 <0>         0.0440
     54 H19        -6.0259   -8.1390    4.6448 H         1 <0>         0.0459
     55 H20         1.9573   -0.1639    8.9779 H         1 <0>         0.0456
     56 H21         3.6313    0.3946    8.7945 H         1 <0>         0.0366
     57 H22         2.2914    1.3997    8.2091 H         1 <0>         0.0474
     58 H23        -1.5993   -4.5943    1.9218 H         1 <0>         0.0800
     59 H24        -0.2563   -5.4850    1.1980 H         1 <0>         0.0681
     60 H25         0.1357   -3.0322    1.0943 H         1 <0>         0.0740
     61 H26         1.3654   -3.8328    2.0643 H         1 <0>         0.0631
     62 H27        -0.9667   -6.5601    3.3198 H         1 <0>         0.0970
     63 H28        -0.6690   -5.0471    4.1914 H         1 <0>         0.0725
     64 H29         0.1003   -3.1895    4.1787 H         1 <0>         0.0839
     65 H30        -3.7341   -3.3447    3.2409 H         1 <0>         0.4531
     66 H31         3.5044   -6.8463    4.1574 H         1 <0>         0.4798
     67 H32         3.0989   -7.5750    5.6798 H         1 <0>         0.4881
     68 H33        -0.4468   -6.8174    5.5641 H         1 <0>         0.4801
     69 H34         0.8200   -7.5607    6.4972 H         1 <0>         0.4806
     70 H35         1.7319   -5.7928    2.8348 H         1 <0>         0.4689
     71 H36        -1.6042   -1.6955    2.2078 H         1 <0>         0.4505
     72 H37         4.4938   -3.2354    4.1746 H         1 <0>         0.4443
@<TRIPOS>BOND
     1    1    2 ar
     2    1    3 ar
     3    2    4 ar
     4    3    6 ar
     5    4    5 ar
     6    4   10 1
     7    5    6 ar
     8    5   24 1
     9    6   35 1
    10    7   15 1
    11    7   30 2
    12    7   34 1
    13    8   23 1
    14    8   25 am
    15    8   31 2
    16    9   26 1
    17    9   27 1
    18    9   28 1
    19   10   16 1
    20   11   13 1
    21   11   17 1
    22   12   15 1
    23   12   17 1
    24   13   25 1
    25   14   16 1
    26   14   24 1
    27   15   25 1
    28   16   18 1
    29   17   19 1
    30   20   21 1
    31   20   22 1
    32   21   23 1
    33   22   28 1
    34   23   29 1
    35   29   35 1
    36   32   35 2
    37   33   35 2
    38    1   36 1
    39    2   37 1
    40    3   38 1
    41   10   39 1
    42   10   40 1
    43   11   41 1
    44   11   42 1
    45   12   43 1
    46   12   44 1
    47   13   45 1
    48   13   46 1
    49   14   47 1
    50   14   48 1
    51   15   49 1
    52   16   50 1
    53   17   51 1
    54   18   52 1
    55   18   53 1
    56   18   54 1
    57   19   55 1
    58   19   56 1
    59   19   57 1
    60   20   58 1
    61   20   59 1
    62   21   60 1
    63   21   61 1
    64   22   62 1
    65   22   63 1
    66   23   64 1
    67   24   65 1
    68   26   66 1
    69   26   67 1
    70   27   68 1
    71   27   69 1
    72   28   70 1
    73   29   71 1
    74   34   72 1
@<TRIPOS>MOLECULE
1dwc_ligand_225
   72    74     0     0     0
SMALL
USER_CHARGES

mmff94s_NoEstat = 79.95
@<TRIPOS>ATOM
      1 C1         -3.5298   -6.2535    4.3510 C.ar      1 <0>        -0.1945
      2 C2         -4.3901   -6.3642    3.2606 C.ar      1 <0>        -0.0294
      3 C3         -2.9628   -5.0220    4.6653 C.ar      1 <0>        -0.0143
      4 C4         -4.6918   -5.2398    2.4790 C.ar      1 <0>        -0.1552
      5 C5         -4.0992   -3.9956    2.7730 C.ar      1 <0>         0.3076
      6 C6         -3.2482   -3.9013    3.8837 C.ar      1 <0>        -0.4908
      7 C7          0.7599    0.4439    6.0693 C.2       1 <0>         0.5994
      8 C8          0.8654   -1.4427    3.2413 C.2       1 <0>         0.6462
      9 C9          1.7699   -7.1193    0.0630 C.cat     1 <0>         0.6305
     10 C10        -5.6204   -5.3796    1.2965 C.3       1 <0>        -0.0319
     11 C11         3.4513   -2.1874    5.7463 C.3       1 <0>        -0.0918
     12 C12         3.1844    0.2989    5.6288 C.3       1 <0>        -0.0841
     13 C13         2.0362   -2.3566    5.2082 C.3       1 <0>         0.0870
     14 C14        -5.1062   -2.9837    0.7664 C.3       1 <0>         0.2023
     15 C15         1.7971    0.1255    5.0050 C.3       1 <0>         0.0778
     16 C16        -6.2232   -4.0248    0.8929 C.3       1 <0>        -0.0746
     17 C17         3.5879   -0.8778    6.5274 C.3       1 <0>        -0.0681
     18 C18        -7.0091   -4.1462   -0.4097 C.3       1 <0>        -0.0944
     19 C19         5.0139   -0.7010    7.0456 C.3       1 <0>        -0.0918
     20 C20        -0.5404   -4.8511    2.0458 C.3       1 <0>        -0.1192
     21 C21         0.3004   -3.5693    2.0376 C.3       1 <0>        -0.0916
     22 C22        -0.1768   -5.7847    0.8978 C.3       1 <0>         0.1883
     23 C23        -0.0078   -2.6730    3.2260 C.3       1 <0>         0.1952
     24 N1         -4.3801   -2.8644    2.0167 N.pl3     1 <0>        -0.7670
     25 N2          1.5999   -1.2067    4.4091 N.am      1 <0>        -0.4509
     26 N3          3.1011   -7.5120    0.1550 N.pl3     1 <0>        -0.8477
     27 N4          0.9786   -7.6393   -0.9556 N.pl3     1 <0>        -0.8633
     28 N5          1.2122   -6.2141    0.9723 N.pl3     1 <0>        -0.7419
     29 N6         -1.3760   -2.1385    3.1042 N.pl3     1 <0>        -0.8860
     30 O1          0.2188   -0.3807    6.7908 O.2       1 <0>        -0.5199
     31 O2          0.8891   -0.7105    2.2483 O.2       1 <0>        -0.6131
     32 O3         -3.5166   -1.3454    4.2968 O.2       1 <0>        -0.6576
     33 O4         -1.7865   -2.6277    5.5955 O.2       1 <0>        -0.6482
     34 O5          0.5101    1.7754    6.1111 O.3       1 <0>        -0.6303
     35 S1         -2.5018   -2.3799    4.3583 S.o2      1 <0>         1.5193
     36 H1         -3.3049   -7.1268    4.9571 H         1 <0>         0.1426
     37 H2         -4.8309   -7.3297    3.0242 H         1 <0>         0.1398
     38 H3         -2.2961   -4.9225    5.5159 H         1 <0>         0.1599
     39 H4         -5.0522   -5.8078    0.4610 H         1 <0>         0.0574
     40 H5         -6.4331   -6.0751    1.5397 H         1 <0>         0.0629
     41 H6          3.7023   -3.0381    6.3909 H         1 <0>         0.0614
     42 H7          4.1624   -2.1957    4.9103 H         1 <0>         0.0593
     43 H8          3.9195    0.3885    4.8172 H         1 <0>         0.0841
     44 H9          3.2348    1.2341    6.2008 H         1 <0>         0.0679
     45 H10         1.9804   -3.2772    4.6181 H         1 <0>         0.0826
     46 H11         1.3238   -2.4627    6.0353 H         1 <0>         0.0383
     47 H12        -4.4091   -3.2616   -0.0338 H         1 <0>         0.0556
     48 H13        -5.5272   -2.0065    0.5046 H         1 <0>         0.0415
     49 H14         1.6678    0.8925    4.2348 H         1 <0>         0.0851
     50 H15        -6.9191   -3.7005    1.6784 H         1 <0>         0.0639
     51 H16         2.9216   -0.9109    7.3982 H         1 <0>         0.0584
     52 H17        -7.6317   -3.2604   -0.5670 H         1 <0>         0.0401
     53 H18        -6.3292   -4.2450   -1.2612 H         1 <0>         0.0440
     54 H19        -7.6604   -5.0250   -0.3851 H         1 <0>         0.0459
     55 H20         5.4291    0.2540    6.7098 H         1 <0>         0.0456
     56 H21         5.0304   -0.7183    8.1394 H         1 <0>         0.0366
     57 H22         5.6586   -1.5050    6.6784 H         1 <0>         0.0474
     58 H23        -0.4002   -5.3741    2.9994 H         1 <0>         0.0800
     59 H24        -1.6035   -4.5964    1.9658 H         1 <0>         0.0681
     60 H25         0.1357   -3.0322    1.0943 H         1 <0>         0.0740
     61 H26         1.3654   -3.8328    2.0643 H         1 <0>         0.0631
     62 H27        -0.3350   -5.3004   -0.0711 H         1 <0>         0.0970
     63 H28        -0.8024   -6.6822    0.9336 H         1 <0>         0.0725
     64 H29         0.1003   -3.1895    4.1787 H         1 <0>         0.0839
     65 H30        -3.8731   -2.0116    2.2195 H         1 <0>         0.4531
     66 H31         3.7173   -7.1568    0.8813 H         1 <0>         0.4798
     67 H32         3.4989   -8.1703   -0.5108 H         1 <0>         0.4881
     68 H33         0.0016   -7.3736   -1.0521 H         1 <0>         0.4801
     69 H34         1.3562   -8.3001   -1.6305 H         1 <0>         0.4806
     70 H35         1.8180   -5.8498    1.7091 H         1 <0>         0.4689
     71 H36        -1.4850   -1.3266    2.4871 H         1 <0>         0.4505
     72 H37        -0.1593    2.0014    6.7917 H         1 <0>         0.4443
@<TRIPOS>BOND
     1    1    2 ar
     2    1    3 ar
     3    2    4 ar
     4    3    6 ar
     5    4    5 ar
     6    4   10 1
     7    5    6 ar
     8    5   24 1
     9    6   35 1
    10    7   15 1
    11    7   30 2
    12    7   34 1
    13    8   23 1
    14    8   25 am
    15    8   31 2
    16    9   26 1
    17    9   27 1
    18    9   28 1
    19   10   16 1
    20   11   13 1
    21   11   17 1
    22   12   15 1
    23   12   17 1
    24   13   25 1
    25   14   16 1
    26   14   24 1
    27   15   25 1
    28   16   18 1
    29   17   19 1
    30   20   21 1
    31   20   22 1
    32   21   23 1
    33   22   28 1
    34   23   29 1
    35   29   35 1
    36   32   35 2
    37   33   35 2
    38    1   36 1
    39    2   37 1
    40    3   38 1
    41   10   39 1
    42   10   40 1
    43   11   41 1
    44   11   42 1
    45   12   43 1
    46   12   44 1
    47   13   45 1
    48   13   46 1
    49   14   47 1
    50   14   48 1
    51   15   49 1
    52   16   50 1
    53   17   51 1
    54   18   52 1
    55   18   53 1
    56   18   54 1
    57   19   55 1
    58   19   56 1
    59   19   57 1
    60   20   58 1
    61   20   59 1
    62   21   60 1
    63   21   61 1
    64   22   62 1
    65   22   63 1
    66   23   64 1
    67   24   65 1
    68   26   66 1
    69   26   67 1
    70   27   68 1
    71   27   69 1
    72   28   70 1
    73   29   71 1
    74   34   72 1
@<TRIPOS>MOLECULE
1dwc_ligand_226
   72    74     0     0     0
SMALL
USER_CHARGES

mmff94s_NoEstat = 79.98
@<TRIPOS>ATOM
      1 C1         -2.9821   -5.2402    6.1755 C.ar      1 <0>        -0.1945
      2 C2         -4.2536   -5.5662    5.7083 C.ar      1 <0>        -0.0294
      3 C3         -2.3862   -4.0437    5.7881 C.ar      1 <0>        -0.0143
      4 C4         -4.9394   -4.6928    4.8521 C.ar      1 <0>        -0.1552
      5 C5         -4.3313   -3.4931    4.4321 C.ar      1 <0>         0.3076
      6 C6         -3.0575   -3.1757    4.9254 C.ar      1 <0>        -0.4908
      7 C7          2.9525   -3.7210    4.6633 C.2       1 <0>         0.5994
      8 C8          0.8654   -1.4427    3.2413 C.2       1 <0>         0.6462
      9 C9          2.0746   -5.2044   -1.4852 C.cat     1 <0>         0.6305
     10 C10        -6.3137   -5.0656    4.3497 C.3       1 <0>        -0.0319
     11 C11         3.8997   -0.0663    4.7953 C.3       1 <0>        -0.0918
     12 C12         3.0155   -1.8674    6.2922 C.3       1 <0>        -0.0841
     13 C13         3.1900   -0.7124    3.6122 C.3       1 <0>         0.0870
     14 C14        -6.2170   -3.0044    2.9255 C.3       1 <0>         0.2023
     15 C15         2.2314   -2.4635    5.1202 C.3       1 <0>         0.0778
     16 C16        -7.0924   -3.8286    3.8752 C.3       1 <0>        -0.0746
     17 C17         4.2756   -1.1130    5.8473 C.3       1 <0>        -0.0681
     18 C18        -8.3998   -4.2353    3.2009 C.3       1 <0>        -0.0944
     19 C19         4.9663   -0.4582    7.0420 C.3       1 <0>        -0.0918
     20 C20         0.0249   -2.8727    0.7002 C.3       1 <0>        -0.1192
     21 C21         0.3004   -3.5693    2.0376 C.3       1 <0>        -0.0916
     22 C22         0.2602   -3.7963   -0.4886 C.3       1 <0>         0.1883
     23 C23        -0.0078   -2.6730    3.2260 C.3       1 <0>         0.1952
     24 N1         -4.9870   -2.6082    3.5850 N.pl3     1 <0>        -0.7670
     25 N2          2.0252   -1.5038    4.0223 N.am      1 <0>        -0.4509
     26 N3          3.3877   -5.6631   -1.4955 N.pl3     1 <0>        -0.8477
     27 N4          1.1890   -5.6621   -2.4548 N.pl3     1 <0>        -0.8633
     28 N5          1.6278   -4.2942   -0.5212 N.pl3     1 <0>        -0.7419
     29 N6         -1.3760   -2.1385    3.1042 N.pl3     1 <0>        -0.8860
     30 O1          3.7741   -3.7699    3.7601 O.2       1 <0>        -0.5199
     31 O2          0.5240   -0.4555    2.5844 O.2       1 <0>        -0.6131
     32 O3         -3.2514   -0.7039    4.1330 O.2       1 <0>        -0.6576
     33 O4         -1.2997   -1.3890    5.5632 O.2       1 <0>        -0.6482
     34 O5          2.5581   -4.7916    5.3952 O.3       1 <0>        -0.6303
     35 S1         -2.2397   -1.6774    4.4970 S.o2      1 <0>         1.5193
     36 H1         -2.4581   -5.9177    6.8441 H         1 <0>         0.1426
     37 H2         -4.7127   -6.5018    6.0186 H         1 <0>         0.1398
     38 H3         -1.3986   -3.7764    6.1505 H         1 <0>         0.1599
     39 H4         -6.1970   -5.7813    3.5259 H         1 <0>         0.0574
     40 H5         -6.8810   -5.5622    5.1465 H         1 <0>         0.0629
     41 H6          4.7987    0.4538    4.4437 H         1 <0>         0.0614
     42 H7          3.2442    0.6909    5.2441 H         1 <0>         0.0593
     43 H8          2.3586   -1.1679    6.8273 H         1 <0>         0.0841
     44 H9          3.2888   -2.6509    7.0104 H         1 <0>         0.0679
     45 H10         2.8945    0.0639    2.8988 H         1 <0>         0.0826
     46 H11         3.8704   -1.3909    3.0835 H         1 <0>         0.0383
     47 H12        -5.9766   -3.5818    2.0242 H         1 <0>         0.0556
     48 H13        -6.7526   -2.1053    2.6011 H         1 <0>         0.0415
     49 H14         1.2607   -2.8048    5.4936 H         1 <0>         0.0851
     50 H15        -7.3408   -3.2116    4.7494 H         1 <0>         0.0639
     51 H16         4.9839   -1.8245    5.4052 H         1 <0>         0.0584
     52 H17        -9.0584   -3.3693    3.0856 H         1 <0>         0.0401
     53 H18        -8.2066   -4.6557    2.2094 H         1 <0>         0.0440
     54 H19        -8.9224   -4.9882    3.7985 H         1 <0>         0.0459
     55 H20         4.4464   -0.7091    7.9715 H         1 <0>         0.0456
     56 H21         6.0020   -0.8015    7.1231 H         1 <0>         0.0366
     57 H22         4.9717    0.6305    6.9335 H         1 <0>         0.0474
     58 H23        -1.0105   -2.5120    0.6824 H         1 <0>         0.0800
     59 H24         0.6776   -1.9980    0.5976 H         1 <0>         0.0681
     60 H25         1.3460   -3.9033    2.0652 H         1 <0>         0.0740
     61 H26        -0.3175   -4.4733    2.1109 H         1 <0>         0.0631
     62 H27         0.0590   -3.2831   -1.4342 H         1 <0>         0.0970
     63 H28        -0.4054   -4.6631   -0.4257 H         1 <0>         0.0725
     64 H29         0.1003   -3.1895    4.1787 H         1 <0>         0.0839
     65 H30        -4.4812   -1.7970    3.2511 H         1 <0>         0.4531
     66 H31         4.0702   -5.3548   -0.8082 H         1 <0>         0.4798
     67 H32         3.7046   -6.3246   -2.2006 H         1 <0>         0.4881
     68 H33         0.2221   -5.3473   -2.4765 H         1 <0>         0.4801
     69 H34         1.4849   -6.3248   -3.1675 H         1 <0>         0.4806
     70 H35         2.3012   -3.9765    0.1776 H         1 <0>         0.4689
     71 H36        -1.6042   -1.6955    2.2078 H         1 <0>         0.4505
     72 H37         3.0115   -5.6147    5.1139 H         1 <0>         0.4443
@<TRIPOS>BOND
     1    1    2 ar
     2    1    3 ar
     3    2    4 ar
     4    3    6 ar
     5    4    5 ar
     6    4   10 1
     7    5    6 ar
     8    5   24 1
     9    6   35 1
    10    7   15 1
    11    7   30 2
    12    7   34 1
    13    8   23 1
    14    8   25 am
    15    8   31 2
    16    9   26 1
    17    9   27 1
    18    9   28 1
    19   10   16 1
    20   11   13 1
    21   11   17 1
    22   12   15 1
    23   12   17 1
    24   13   25 1
    25   14   16 1
    26   14   24 1
    27   15   25 1
    28   16   18 1
    29   17   19 1
    30   20   21 1
    31   20   22 1
    32   21   23 1
    33   22   28 1
    34   23   29 1
    35   29   35 1
    36   32   35 2
    37   33   35 2
    38    1   36 1
    39    2   37 1
    40    3   38 1
    41   10   39 1
    42   10   40 1
    43   11   41 1
    44   11   42 1
    45   12   43 1
    46   12   44 1
    47   13   45 1
    48   13   46 1
    49   14   47 1
    50   14   48 1
    51   15   49 1
    52   16   50 1
    53   17   51 1
    54   18   52 1
    55   18   53 1
    56   18   54 1
    57   19   55 1
    58   19   56 1
    59   19   57 1
    60   20   58 1
    61   20   59 1
    62   21   60 1
    63   21   61 1
    64   22   62 1
    65   22   63 1
    66   23   64 1
    67   24   65 1
    68   26   66 1
    69   26   67 1
    70   27   68 1
    71   27   69 1
    72   28   70 1
    73   29   71 1
    74   34   72 1
@<TRIPOS>MOLECULE
1dwc_ligand_227
   72    74     0     0     0
SMALL
USER_CHARGES

mmff94s_NoEstat = 79.98
@<TRIPOS>ATOM
      1 C1         -0.1021   -7.1683    0.7355 C.ar      1 <0>        -0.1945
      2 C2         -0.5792   -8.1239    1.6301 C.ar      1 <0>        -0.0294
      3 C3          0.6637   -6.1037    1.2012 C.ar      1 <0>        -0.0143
      4 C4         -0.2955   -8.0178    2.9994 C.ar      1 <0>        -0.1552
      5 C5          0.5031   -6.9592    3.4747 C.ar      1 <0>         0.3076
      6 C6          0.9609   -5.9987    2.5610 C.ar      1 <0>        -0.4908
      7 C7         -1.1116    1.0220    1.9825 C.2       1 <0>         0.5994
      8 C8          0.8654   -1.4427    3.2413 C.2       1 <0>         0.6462
      9 C9         -4.4066   -3.3472    6.8497 C.cat     1 <0>         0.6305
     10 C10        -0.8145   -9.0679    3.9520 C.3       1 <0>        -0.0319
     11 C11         2.1388    0.2326    0.2266 C.3       1 <0>        -0.0918
     12 C12        -0.3237   -0.1114   -0.0639 C.3       1 <0>        -0.0841
     13 C13         1.9602    0.1751    1.7384 C.3       1 <0>         0.0870
     14 C14         0.4940   -7.9005    5.7515 C.3       1 <0>         0.2023
     15 C15        -0.4871   -0.2577    1.4512 C.3       1 <0>         0.0778
     16 C16        -0.8357   -8.5817    5.4103 C.3       1 <0>        -0.0746
     17 C17         0.8749    0.7635   -0.4549 C.3       1 <0>        -0.0681
     18 C18        -2.0342   -7.6681    5.6911 C.3       1 <0>        -0.0944
     19 C19         1.0498    0.7979   -1.9719 C.3       1 <0>        -0.0918
     20 C20        -1.0866   -2.1427    5.4567 C.3       1 <0>        -0.1192
     21 C21        -1.3133   -2.4479    3.9716 C.3       1 <0>        -0.0916
     22 C22        -2.3970   -1.9935    6.2196 C.3       1 <0>         0.1883
     23 C23        -0.0078   -2.6730    3.2260 C.3       1 <0>         0.1952
     24 N1          0.7943   -6.8242    4.8264 N.pl3     1 <0>        -0.7670
     25 N2          0.7744   -0.5925    2.1333 N.am      1 <0>        -0.4509
     26 N3         -5.1439   -4.5252    6.7900 N.pl3     1 <0>        -0.8477
     27 N4         -4.8938   -2.2796    7.5959 N.pl3     1 <0>        -0.8633
     28 N5         -3.1876   -3.2152    6.1760 N.pl3     1 <0>        -0.7419
     29 N6          0.7961   -3.6905    3.9267 N.pl3     1 <0>        -0.8860
     30 O1         -2.1646    1.5037    1.5920 O.2       1 <0>        -0.5199
     31 O2          1.6103   -1.2468    4.2054 O.2       1 <0>        -0.6131
     32 O3          2.9489   -5.1033    3.9827 O.2       1 <0>        -0.6576
     33 O4          2.3147   -3.9087    1.8626 O.2       1 <0>        -0.6482
     34 O5         -0.3377    1.5649    2.9539 O.3       1 <0>        -0.6303
     35 S1          1.9328   -4.6215    3.0666 S.o2      1 <0>         1.5193
     36 H1         -0.3304   -7.2521   -0.3236 H         1 <0>         0.1426
     37 H2         -1.1793   -8.9508    1.2577 H         1 <0>         0.1398
     38 H3          1.0358   -5.3499    0.5144 H         1 <0>         0.1599
     39 H4         -1.8224   -9.3834    3.6556 H         1 <0>         0.0574
     40 H5         -0.1575   -9.9435    3.8733 H         1 <0>         0.0629
     41 H6          2.9950    0.8726   -0.0171 H         1 <0>         0.0614
     42 H7          2.3692   -0.7717   -0.1514 H         1 <0>         0.0593
     43 H8         -0.1827   -1.1122   -0.4945 H         1 <0>         0.0841
     44 H9         -1.2391    0.2955   -0.5121 H         1 <0>         0.0679
     45 H10         2.8610   -0.2490    2.1940 H         1 <0>         0.0826
     46 H11         1.8403    1.1858    2.1470 H         1 <0>         0.0383
     47 H12         0.4682   -7.5028    6.7722 H         1 <0>         0.0556
     48 H13         1.3063   -8.6368    5.7145 H         1 <0>         0.0415
     49 H14        -1.2253   -1.0427    1.6435 H         1 <0>         0.0851
     50 H15        -0.9553   -9.4568    6.0608 H         1 <0>         0.0639
     51 H16         0.6944    1.7923   -0.1196 H         1 <0>         0.0584
     52 H17        -2.5659   -7.4356    4.7636 H         1 <0>         0.0401
     53 H18        -2.7347   -8.1530    6.3776 H         1 <0>         0.0440
     54 H19        -1.7034   -6.7283    6.1433 H         1 <0>         0.0459
     55 H20         0.1097    0.5485   -2.4730 H         1 <0>         0.0456
     56 H21         1.3618    1.7937   -2.3005 H         1 <0>         0.0366
     57 H22         1.8100    0.0770   -2.2875 H         1 <0>         0.0474
     58 H23        -0.4913   -2.9455    5.9081 H         1 <0>         0.0800
     59 H24        -0.5143   -1.2136    5.5600 H         1 <0>         0.0681
     60 H25        -1.8840   -1.6286    3.5148 H         1 <0>         0.0740
     61 H26        -1.9315   -3.3495    3.8758 H         1 <0>         0.0631
     62 H27        -3.0022   -1.1781    5.8107 H         1 <0>         0.0970
     63 H28        -2.1935   -1.7693    7.2716 H         1 <0>         0.0725
     64 H29        -0.1638   -2.9774    2.1921 H         1 <0>         0.0839
     65 H30         1.4333   -6.0909    5.1082 H         1 <0>         0.4531
     66 H31        -4.8283   -5.3304    6.2558 H         1 <0>         0.4798
     67 H32        -6.0298   -4.6126    7.2825 H         1 <0>         0.4881
     68 H33        -4.3804   -1.4040    7.6609 H         1 <0>         0.4801
     69 H34        -5.7763   -2.3468    8.0972 H         1 <0>         0.4806
     70 H35        -2.8559   -4.0162    5.6365 H         1 <0>         0.4689
     71 H36         0.9382   -3.5340    4.9302 H         1 <0>         0.4505
     72 H37        -0.7234    2.3940    3.3090 H         1 <0>         0.4443
@<TRIPOS>BOND
     1    1    2 ar
     2    1    3 ar
     3    2    4 ar
     4    3    6 ar
     5    4    5 ar
     6    4   10 1
     7    5    6 ar
     8    5   24 1
     9    6   35 1
    10    7   15 1
    11    7   30 2
    12    7   34 1
    13    8   23 1
    14    8   25 am
    15    8   31 2
    16    9   26 1
    17    9   27 1
    18    9   28 1
    19   10   16 1
    20   11   13 1
    21   11   17 1
    22   12   15 1
    23   12   17 1
    24   13   25 1
    25   14   16 1
    26   14   24 1
    27   15   25 1
    28   16   18 1
    29   17   19 1
    30   20   21 1
    31   20   22 1
    32   21   23 1
    33   22   28 1
    34   23   29 1
    35   29   35 1
    36   32   35 2
    37   33   35 2
    38    1   36 1
    39    2   37 1
    40    3   38 1
    41   10   39 1
    42   10   40 1
    43   11   41 1
    44   11   42 1
    45   12   43 1
    46   12   44 1
    47   13   45 1
    48   13   46 1
    49   14   47 1
    50   14   48 1
    51   15   49 1
    52   16   50 1
    53   17   51 1
    54   18   52 1
    55   18   53 1
    56   18   54 1
    57   19   55 1
    58   19   56 1
    59   19   57 1
    60   20   58 1
    61   20   59 1
    62   21   60 1
    63   21   61 1
    64   22   62 1
    65   22   63 1
    66   23   64 1
    67   24   65 1
    68   26   66 1
    69   26   67 1
    70   27   68 1
    71   27   69 1
    72   28   70 1
    73   29   71 1
    74   34   72 1
@<TRIPOS>MOLECULE
1dwc_ligand_228
   72    74     0     0     0
SMALL
USER_CHARGES

mmff94s_NoEstat = 80.02
@<TRIPOS>ATOM
      1 C1         -1.9965   -5.9212    5.9958 C.ar      1 <0>        -0.1945
      2 C2         -2.1862   -5.2163    7.1826 C.ar      1 <0>        -0.0294
      3 C3         -2.1655   -5.2788    4.7728 C.ar      1 <0>        -0.0143
      4 C4         -2.5430   -3.8606    7.1524 C.ar      1 <0>        -0.1552
      5 C5         -2.7443   -3.2106    5.9185 C.ar      1 <0>         0.3076
      6 C6         -2.5336   -3.9330    4.7351 C.ar      1 <0>        -0.4908
      7 C7          2.0323   -3.0842    5.9821 C.2       1 <0>         0.5994
      8 C8          0.8654   -1.4427    3.2413 C.2       1 <0>         0.6462
      9 C9         -0.6326   -5.9229   -1.4626 C.cat     1 <0>         0.6305
     10 C10        -2.7517   -3.1143    8.4484 C.3       1 <0>        -0.0319
     11 C11         3.0911    0.4998    5.4298 C.3       1 <0>        -0.0918
     12 C12         1.5534   -0.8369    6.8842 C.3       1 <0>        -0.0841
     13 C13         2.8818   -0.5022    4.3015 C.3       1 <0>         0.0870
     14 C14        -3.4952   -1.1625    7.0613 C.3       1 <0>         0.2023
     15 C15         1.2754   -1.7924    5.7207 C.3       1 <0>         0.0778
     16 C16        -2.6278   -1.5957    8.2477 C.3       1 <0>        -0.0746
     17 C17         2.9339   -0.1724    6.7962 C.3       1 <0>        -0.0681
     18 C18        -3.0221   -0.8459    9.5173 C.3       1 <0>        -0.0944
     19 C19         3.1216    0.8403    7.9242 C.3       1 <0>        -0.0918
     20 C20         0.0249   -2.8727    0.7002 C.3       1 <0>        -0.1192
     21 C21         0.3004   -3.5693    2.0376 C.3       1 <0>        -0.0916
     22 C22         0.2602   -3.7963   -0.4886 C.3       1 <0>         0.1883
     23 C23        -0.0078   -2.6730    3.2260 C.3       1 <0>         0.1952
     24 N1         -3.0973   -1.8681    5.8578 N.pl3     1 <0>        -0.7670
     25 N2          1.5999   -1.2067    4.4091 N.am      1 <0>        -0.4509
     26 N3         -1.4804   -7.0239   -1.4014 N.pl3     1 <0>        -0.8477
     27 N4          0.2178   -5.7819   -2.5539 N.pl3     1 <0>        -0.8633
     28 N5         -0.6182   -4.9567   -0.4508 N.pl3     1 <0>        -0.7419
     29 N6         -1.3760   -2.1385    3.1042 N.pl3     1 <0>        -0.8860
     30 O1          2.8364   -3.5938    5.2160 O.2       1 <0>        -0.5199
     31 O2          0.8891   -0.7105    2.2483 O.2       1 <0>        -0.6131
     32 O3         -2.5366   -4.2300    2.1492 O.2       1 <0>        -0.6576
     33 O4         -3.9323   -2.4104    3.1814 O.2       1 <0>        -0.6482
     34 O5          1.6924   -3.6026    7.1875 O.3       1 <0>        -0.6303
     35 S1         -2.7118   -3.1932    3.1483 S.o2      1 <0>         1.5193
     36 H1         -1.7136   -6.9698    6.0253 H         1 <0>         0.1426
     37 H2         -2.0492   -5.7255    8.1337 H         1 <0>         0.1398
     38 H3         -2.0145   -5.8162    3.8419 H         1 <0>         0.1599
     39 H4         -3.7469   -3.3674    8.8354 H         1 <0>         0.0574
     40 H5         -2.0117   -3.4391    9.1901 H         1 <0>         0.0629
     41 H6          4.0885    0.9467    5.3426 H         1 <0>         0.0614
     42 H7          2.3630    1.3153    5.3324 H         1 <0>         0.0593
     43 H8          0.7851   -0.0517    6.8776 H         1 <0>         0.0841
     44 H9          1.4567   -1.3607    7.8437 H         1 <0>         0.0679
     45 H10         2.9560    0.0148    3.3392 H         1 <0>         0.0826
     46 H11         3.6704   -1.2643    4.3172 H         1 <0>         0.0383
     47 H12        -4.5547   -1.3611    7.2657 H         1 <0>         0.0556
     48 H13        -3.3943   -0.0847    6.8920 H         1 <0>         0.0415
     49 H14         0.2160   -2.0663    5.7460 H         1 <0>         0.0851
     50 H15        -1.5799   -1.3538    8.0242 H         1 <0>         0.0639
     51 H16         3.7104   -0.9392    6.9078 H         1 <0>         0.0584
     52 H17        -2.7058    0.1999    9.4599 H         1 <0>         0.0401
     53 H18        -4.1069   -0.8706    9.6572 H         1 <0>         0.0440
     54 H19        -2.5511   -1.3005   10.3940 H         1 <0>         0.0459
     55 H20         2.2527    0.8404    8.5891 H         1 <0>         0.0456
     56 H21         4.0086    0.5961    8.5164 H         1 <0>         0.0366
     57 H22         3.2450    1.8489    7.5186 H         1 <0>         0.0474
     58 H23        -1.0105   -2.5120    0.6824 H         1 <0>         0.0800
     59 H24         0.6776   -1.9980    0.5976 H         1 <0>         0.0681
     60 H25         1.3460   -3.9033    2.0652 H         1 <0>         0.0740
     61 H26        -0.3175   -4.4733    2.1109 H         1 <0>         0.0631
     62 H27         1.2957   -4.1503   -0.5157 H         1 <0>         0.0970
     63 H28         0.0608   -3.2615   -1.4226 H         1 <0>         0.0725
     64 H29         0.1003   -3.1895    4.1787 H         1 <0>         0.0839
     65 H30        -3.3042   -1.4652    4.9522 H         1 <0>         0.4531
     66 H31        -2.1173   -7.1693   -0.6226 H         1 <0>         0.4798
     67 H32        -1.4841   -7.7223   -2.1412 H         1 <0>         0.4881
     68 H33         0.8505   -4.9892   -2.6303 H         1 <0>         0.4801
     69 H34         0.2286   -6.4677   -3.3050 H         1 <0>         0.4806
     70 H35        -1.2539   -5.0876    0.3375 H         1 <0>         0.4689
     71 H36        -1.5021   -1.1633    3.3956 H         1 <0>         0.4505
     72 H37         2.1696   -4.4391    7.3743 H         1 <0>         0.4443
@<TRIPOS>BOND
     1    1    2 ar
     2    1    3 ar
     3    2    4 ar
     4    3    6 ar
     5    4    5 ar
     6    4   10 1
     7    5    6 ar
     8    5   24 1
     9    6   35 1
    10    7   15 1
    11    7   30 2
    12    7   34 1
    13    8   23 1
    14    8   25 am
    15    8   31 2
    16    9   26 1
    17    9   27 1
    18    9   28 1
    19   10   16 1
    20   11   13 1
    21   11   17 1
    22   12   15 1
    23   12   17 1
    24   13   25 1
    25   14   16 1
    26   14   24 1
    27   15   25 1
    28   16   18 1
    29   17   19 1
    30   20   21 1
    31   20   22 1
    32   21   23 1
    33   22   28 1
    34   23   29 1
    35   29   35 1
    36   32   35 2
    37   33   35 2
    38    1   36 1
    39    2   37 1
    40    3   38 1
    41   10   39 1
    42   10   40 1
    43   11   41 1
    44   11   42 1
    45   12   43 1
    46   12   44 1
    47   13   45 1
    48   13   46 1
    49   14   47 1
    50   14   48 1
    51   15   49 1
    52   16   50 1
    53   17   51 1
    54   18   52 1
    55   18   53 1
    56   18   54 1
    57   19   55 1
    58   19   56 1
    59   19   57 1
    60   20   58 1
    61   20   59 1
    62   21   60 1
    63   21   61 1
    64   22   62 1
    65   22   63 1
    66   23   64 1
    67   24   65 1
    68   26   66 1
    69   26   67 1
    70   27   68 1
    71   27   69 1
    72   28   70 1
    73   29   71 1
    74   34   72 1
@<TRIPOS>MOLECULE
1dwc_ligand_229
   72    74     0     0     0
SMALL
USER_CHARGES

mmff94s_NoEstat = 80.02
@<TRIPOS>ATOM
      1 C1         -1.9965   -5.9212    5.9958 C.ar      1 <0>        -0.1945
      2 C2         -2.1862   -5.2163    7.1826 C.ar      1 <0>        -0.0294
      3 C3         -2.1655   -5.2788    4.7728 C.ar      1 <0>        -0.0143
      4 C4         -2.5430   -3.8606    7.1524 C.ar      1 <0>        -0.1552
      5 C5         -2.7443   -3.2106    5.9185 C.ar      1 <0>         0.3076
      6 C6         -2.5336   -3.9330    4.7351 C.ar      1 <0>        -0.4908
      7 C7          1.8094   -2.2220    6.4146 C.2       1 <0>         0.5994
      8 C8          0.8654   -1.4427    3.2413 C.2       1 <0>         0.6462
      9 C9          2.1577   -4.6267   -1.7165 C.cat     1 <0>         0.6305
     10 C10        -2.7517   -3.1143    8.4484 C.3       1 <0>        -0.0319
     11 C11         1.3547    1.4153    5.5015 C.3       1 <0>        -0.0918
     12 C12         0.1935   -0.3932    6.7850 C.3       1 <0>        -0.0841
     13 C13         1.9116    0.3681    4.5455 C.3       1 <0>         0.0870
     14 C14        -3.4952   -1.1625    7.0613 C.3       1 <0>         0.2023
     15 C15         0.6811   -1.4322    5.7719 C.3       1 <0>         0.0778
     16 C16        -2.6278   -1.5957    8.2477 C.3       1 <0>        -0.0746
     17 C17         1.1262    0.8207    6.8935 C.3       1 <0>        -0.0681
     18 C18        -3.0221   -0.8459    9.5173 C.3       1 <0>        -0.0944
     19 C19         0.5462    1.8676    7.8426 C.3       1 <0>        -0.0918
     20 C20         1.7689   -4.0083    2.0091 C.3       1 <0>        -0.1192
     21 C21         0.3004   -3.5693    2.0376 C.3       1 <0>        -0.0916
     22 C22         2.0958   -4.8429    0.7769 C.3       1 <0>         0.1883
     23 C23        -0.0078   -2.6730    3.2260 C.3       1 <0>         0.1952
     24 N1         -3.0973   -1.8681    5.8578 N.pl3     1 <0>        -0.7670
     25 N2          1.0754   -0.8353    4.4846 N.am      1 <0>        -0.4509
     26 N3          1.9356   -3.8927   -2.8771 N.pl3     1 <0>        -0.8477
     27 N4          2.6719   -5.9149   -1.8171 N.pl3     1 <0>        -0.8633
     28 N5          1.8751   -4.0962   -0.4532 N.pl3     1 <0>        -0.7419
     29 N6         -1.3760   -2.1385    3.1042 N.pl3     1 <0>        -0.8860
     30 O1          2.9993   -1.9718    6.2928 O.2       1 <0>        -0.5199
     31 O2          1.3411   -1.0305    2.1799 O.2       1 <0>        -0.6131
     32 O3         -2.5366   -4.2300    2.1492 O.2       1 <0>        -0.6576
     33 O4         -3.9323   -2.4104    3.1814 O.2       1 <0>        -0.6482
     34 O5          1.3170   -3.2520    7.1454 O.3       1 <0>        -0.6303
     35 S1         -2.7118   -3.1932    3.1483 S.o2      1 <0>         1.5193
     36 H1         -1.7136   -6.9698    6.0253 H         1 <0>         0.1426
     37 H2         -2.0492   -5.7255    8.1337 H         1 <0>         0.1398
     38 H3         -2.0145   -5.8162    3.8419 H         1 <0>         0.1599
     39 H4         -3.7469   -3.3674    8.8354 H         1 <0>         0.0574
     40 H5         -2.0117   -3.4391    9.1901 H         1 <0>         0.0629
     41 H6          2.0492    2.2615    5.5629 H         1 <0>         0.0614
     42 H7          0.4079    1.8038    5.1048 H         1 <0>         0.0593
     43 H8         -0.8003   -0.0449    6.4717 H         1 <0>         0.0841
     44 H9          0.0668   -0.8506    7.7745 H         1 <0>         0.0679
     45 H10         2.0225    0.8091    3.5494 H         1 <0>         0.0826
     46 H11         2.9105    0.0502    4.8680 H         1 <0>         0.0383
     47 H12        -4.5547   -1.3611    7.2657 H         1 <0>         0.0556
     48 H13        -3.3943   -0.0847    6.8920 H         1 <0>         0.0415
     49 H14        -0.1232   -2.1562    5.6073 H         1 <0>         0.0851
     50 H15        -1.5799   -1.3538    8.0242 H         1 <0>         0.0639
     51 H16         2.0901    0.4983    7.3061 H         1 <0>         0.0584
     52 H17        -2.7058    0.1999    9.4599 H         1 <0>         0.0401
     53 H18        -4.1069   -0.8706    9.6572 H         1 <0>         0.0440
     54 H19        -2.5511   -1.3005   10.3940 H         1 <0>         0.0459
     55 H20        -0.3870    1.5087    8.2868 H         1 <0>         0.0456
     56 H21         1.2507    2.0862    8.6507 H         1 <0>         0.0366
     57 H22         0.3370    2.7982    7.3067 H         1 <0>         0.0474
     58 H23         2.4156   -3.1229    2.0318 H         1 <0>         0.0800
     59 H24         1.9949   -4.6013    2.9028 H         1 <0>         0.0681
     60 H25        -0.3448   -4.4577    2.0448 H         1 <0>         0.0740
     61 H26         0.0666   -3.0218    1.1158 H         1 <0>         0.0631
     62 H27         1.4860   -5.7513    0.7413 H         1 <0>         0.0970
     63 H28         3.1484   -5.1425    0.7970 H         1 <0>         0.0725
     64 H29         0.1003   -3.1895    4.1787 H         1 <0>         0.0839
     65 H30        -3.3042   -1.4652    4.9522 H         1 <0>         0.4531
     66 H31         1.5595   -2.9487   -2.8523 H         1 <0>         0.4798
     67 H32         2.1433   -4.2863   -3.7920 H         1 <0>         0.4881
     68 H33         2.8463   -6.4791   -0.9889 H         1 <0>         0.4801
     69 H34         2.8881   -6.3264   -2.7218 H         1 <0>         0.4806
     70 H35         1.4985   -3.1480   -0.4116 H         1 <0>         0.4689
     71 H36        -1.5021   -1.1633    3.3956 H         1 <0>         0.4505
     72 H37         2.0308   -3.7759    7.5675 H         1 <0>         0.4443
@<TRIPOS>BOND
     1    1    2 ar
     2    1    3 ar
     3    2    4 ar
     4    3    6 ar
     5    4    5 ar
     6    4   10 1
     7    5    6 ar
     8    5   24 1
     9    6   35 1
    10    7   15 1
    11    7   30 2
    12    7   34 1
    13    8   23 1
    14    8   25 am
    15    8   31 2
    16    9   26 1
    17    9   27 1
    18    9   28 1
    19   10   16 1
    20   11   13 1
    21   11   17 1
    22   12   15 1
    23   12   17 1
    24   13   25 1
    25   14   16 1
    26   14   24 1
    27   15   25 1
    28   16   18 1
    29   17   19 1
    30   20   21 1
    31   20   22 1
    32   21   23 1
    33   22   28 1
    34   23   29 1
    35   29   35 1
    36   32   35 2
    37   33   35 2
    38    1   36 1
    39    2   37 1
    40    3   38 1
    41   10   39 1
    42   10   40 1
    43   11   41 1
    44   11   42 1
    45   12   43 1
    46   12   44 1
    47   13   45 1
    48   13   46 1
    49   14   47 1
    50   14   48 1
    51   15   49 1
    52   16   50 1
    53   17   51 1
    54   18   52 1
    55   18   53 1
    56   18   54 1
    57   19   55 1
    58   19   56 1
    59   19   57 1
    60   20   58 1
    61   20   59 1
    62   21   60 1
    63   21   61 1
    64   22   62 1
    65   22   63 1
    66   23   64 1
    67   24   65 1
    68   26   66 1
    69   26   67 1
    70   27   68 1
    71   27   69 1
    72   28   70 1
    73   29   71 1
    74   34   72 1
@<TRIPOS>MOLECULE
1dwc_ligand_230
   72    74     0     0     0
SMALL
USER_CHARGES

mmff94s_NoEstat = 80.02
@<TRIPOS>ATOM
      1 C1         -1.3760   -0.0831    7.4437 C.ar      1 <0>        -0.1945
      2 C2         -1.7166    1.2052    7.0370 C.ar      1 <0>        -0.0294
      3 C3         -1.6287   -1.1649    6.6053 C.ar      1 <0>        -0.0143
      4 C4         -2.3098    1.4195    5.7846 C.ar      1 <0>        -0.1552
      5 C5         -2.5954    0.3267    4.9421 C.ar      1 <0>         0.3076
      6 C6         -2.2310   -0.9605    5.3628 C.ar      1 <0>        -0.4908
      7 C7          3.7233   -2.4449    4.7893 C.2       1 <0>         0.5994
      8 C8          0.8654   -1.4427    3.2413 C.2       1 <0>         0.6462
      9 C9          1.7699   -7.1193    0.0630 C.cat     1 <0>         0.6305
     10 C10        -2.6790    2.8217    5.3633 C.3       1 <0>        -0.0319
     11 C11         1.7658    0.4222    6.2790 C.3       1 <0>        -0.0918
     12 C12         2.2228   -2.0030    6.6989 C.3       1 <0>        -0.0841
     13 C13         1.9003    0.1799    4.7810 C.3       1 <0>         0.0870
     14 C14        -3.7276    1.8014    3.3273 C.3       1 <0>         0.2023
     15 C15         2.2690   -2.2605    5.1905 C.3       1 <0>         0.0778
     16 C16        -2.8246    2.9293    3.8373 C.3       1 <0>        -0.0746
     17 C17         2.6202   -0.5689    7.0736 C.3       1 <0>        -0.0681
     18 C18        -3.3763    4.2954    3.4390 C.3       1 <0>        -0.0944
     19 C19         2.4647   -0.3375    8.5754 C.3       1 <0>        -0.0918
     20 C20        -0.5404   -4.8511    2.0458 C.3       1 <0>        -0.1192
     21 C21         0.3004   -3.5693    2.0376 C.3       1 <0>        -0.0916
     22 C22        -0.1768   -5.7847    0.8978 C.3       1 <0>         0.1883
     23 C23        -0.0078   -2.6730    3.2260 C.3       1 <0>         0.1952
     24 N1         -3.1817    0.5088    3.6957 N.pl3     1 <0>        -0.7670
     25 N2          1.5999   -1.2067    4.4091 N.am      1 <0>        -0.4509
     26 N3          3.1011   -7.5120    0.1550 N.pl3     1 <0>        -0.8477
     27 N4          0.9786   -7.6393   -0.9556 N.pl3     1 <0>        -0.8633
     28 N5          1.2122   -6.2141    0.9723 N.pl3     1 <0>        -0.7419
     29 N6         -1.3760   -2.1385    3.1042 N.pl3     1 <0>        -0.8860
     30 O1          4.4523   -1.5599    4.3665 O.2       1 <0>        -0.5199
     31 O2          0.8891   -0.7105    2.2483 O.2       1 <0>        -0.6131
     32 O3         -2.1204   -3.5503    5.1256 O.2       1 <0>        -0.6576
     33 O4         -3.8433   -2.2664    3.8188 O.2       1 <0>        -0.6482
     34 O5          4.1079   -3.7331    4.9617 O.3       1 <0>        -0.6303
     35 S1         -2.5018   -2.3799    4.3583 S.o2      1 <0>         1.5193
     36 H1         -0.9105   -0.2425    8.4124 H         1 <0>         0.1426
     37 H2         -1.5128    2.0448    7.6973 H         1 <0>         0.1398
     38 H3         -1.3622   -2.1723    6.9089 H         1 <0>         0.1599
     39 H4         -3.6215    3.0926    5.8559 H         1 <0>         0.0574
     40 H5         -1.9103    3.5280    5.7005 H         1 <0>         0.0629
     41 H6          2.0669    1.4503    6.5123 H         1 <0>         0.0614
     42 H7          0.7128    0.3207    6.5714 H         1 <0>         0.0593
     43 H8          1.1978   -2.1858    7.0494 H         1 <0>         0.0841
     44 H9          2.8666   -2.7151    7.2306 H         1 <0>         0.0679
     45 H10         1.2456    0.8722    4.2416 H         1 <0>         0.0826
     46 H11         2.9258    0.3867    4.4518 H         1 <0>         0.0383
     47 H12        -4.7388    1.9004    3.7412 H         1 <0>         0.0556
     48 H13        -3.8175    1.8521    2.2365 H         1 <0>         0.0415
     49 H14         1.7884   -3.2235    4.9909 H         1 <0>         0.0851
     50 H15        -1.8320    2.8194    3.3797 H         1 <0>         0.0639
     51 H16         3.6763   -0.4106    6.8224 H         1 <0>         0.0584
     52 H17        -3.2514    4.4622    2.3649 H         1 <0>         0.0401
     53 H18        -4.4422    4.3638    3.6766 H         1 <0>         0.0440
     54 H19        -2.8521    5.0926    3.9745 H         1 <0>         0.0459
     55 H20         2.1532   -1.2591    9.0761 H         1 <0>         0.0456
     56 H21         3.4121   -0.0103    9.0142 H         1 <0>         0.0366
     57 H22         1.7112    0.4316    8.7697 H         1 <0>         0.0474
     58 H23        -0.4002   -5.3741    2.9994 H         1 <0>         0.0800
     59 H24        -1.6035   -4.5964    1.9658 H         1 <0>         0.0681
     60 H25         0.1357   -3.0322    1.0943 H         1 <0>         0.0740
     61 H26         1.3654   -3.8328    2.0643 H         1 <0>         0.0631
     62 H27        -0.3350   -5.3004   -0.0711 H         1 <0>         0.0970
     63 H28        -0.8024   -6.6822    0.9336 H         1 <0>         0.0725
     64 H29         0.1003   -3.1895    4.1787 H         1 <0>         0.0839
     65 H30        -3.4363   -0.3112    3.1590 H         1 <0>         0.4531
     66 H31         3.7173   -7.1568    0.8813 H         1 <0>         0.4798
     67 H32         3.4989   -8.1703   -0.5108 H         1 <0>         0.4881
     68 H33         0.0016   -7.3736   -1.0521 H         1 <0>         0.4801
     69 H34         1.3562   -8.3001   -1.6305 H         1 <0>         0.4806
     70 H35         1.8180   -5.8498    1.7091 H         1 <0>         0.4689
     71 H36        -1.4850   -1.3266    2.4871 H         1 <0>         0.4505
     72 H37         5.0446   -3.8732    4.7061 H         1 <0>         0.4443
@<TRIPOS>BOND
     1    1    2 ar
     2    1    3 ar
     3    2    4 ar
     4    3    6 ar
     5    4    5 ar
     6    4   10 1
     7    5    6 ar
     8    5   24 1
     9    6   35 1
    10    7   15 1
    11    7   30 2
    12    7   34 1
    13    8   23 1
    14    8   25 am
    15    8   31 2
    16    9   26 1
    17    9   27 1
    18    9   28 1
    19   10   16 1
    20   11   13 1
    21   11   17 1
    22   12   15 1
    23   12   17 1
    24   13   25 1
    25   14   16 1
    26   14   24 1
    27   15   25 1
    28   16   18 1
    29   17   19 1
    30   20   21 1
    31   20   22 1
    32   21   23 1
    33   22   28 1
    34   23   29 1
    35   29   35 1
    36   32   35 2
    37   33   35 2
    38    1   36 1
    39    2   37 1
    40    3   38 1
    41   10   39 1
    42   10   40 1
    43   11   41 1
    44   11   42 1
    45   12   43 1
    46   12   44 1
    47   13   45 1
    48   13   46 1
    49   14   47 1
    50   14   48 1
    51   15   49 1
    52   16   50 1
    53   17   51 1
    54   18   52 1
    55   18   53 1
    56   18   54 1
    57   19   55 1
    58   19   56 1
    59   19   57 1
    60   20   58 1
    61   20   59 1
    62   21   60 1
    63   21   61 1
    64   22   62 1
    65   22   63 1
    66   23   64 1
    67   24   65 1
    68   26   66 1
    69   26   67 1
    70   27   68 1
    71   27   69 1
    72   28   70 1
    73   29   71 1
    74   34   72 1
@<TRIPOS>MOLECULE
1dwc_ligand_231
   72    74     0     0     0
SMALL
USER_CHARGES

mmff94s_NoEstat = 80.03
@<TRIPOS>ATOM
      1 C1         -2.8453   -5.2759    6.6308 C.ar      1 <0>        -0.1945
      2 C2         -2.2322   -5.1306    7.8734 C.ar      1 <0>        -0.0294
      3 C3         -2.0700   -5.3199    5.4760 C.ar      1 <0>        -0.0143
      4 C4         -0.8370   -5.0243    7.9679 C.ar      1 <0>        -0.1552
      5 C5         -0.0434   -5.0968    6.8063 C.ar      1 <0>         0.3076
      6 C6         -0.6800   -5.2276    5.5634 C.ar      1 <0>        -0.4908
      7 C7          1.0326   -1.5891   -0.1526 C.2       1 <0>         0.5994
      8 C8          0.8654   -1.4427    3.2413 C.2       1 <0>         0.6462
      9 C9         -2.8213    0.6638    5.9816 C.cat     1 <0>         0.6305
     10 C10        -0.1907   -4.8756    9.3242 C.3       1 <0>        -0.0319
     11 C11         4.0928   -0.4819    1.7658 C.3       1 <0>        -0.0918
     12 C12         3.2369   -2.4756    0.5172 C.3       1 <0>        -0.0841
     13 C13         2.6673   -0.1389    2.1793 C.3       1 <0>         0.0870
     14 C14         2.0228   -5.0431    8.1470 C.3       1 <0>         0.2023
     15 C15         1.8171   -2.1794    1.0075 C.3       1 <0>         0.0778
     16 C16         1.2359   -4.3091    9.2381 C.3       1 <0>        -0.0746
     17 C17         4.1123   -1.2187    0.4240 C.3       1 <0>        -0.0681
     18 C18         1.2365   -2.7918    9.0202 C.3       1 <0>        -0.0944
     19 C19         5.5413   -1.5810    0.0243 C.3       1 <0>        -0.0918
     20 C20        -2.1115   -1.2711    3.3990 C.3       1 <0>        -0.1192
     21 C21        -1.3133   -2.4479    3.9716 C.3       1 <0>        -0.0916
     22 C22        -3.3821   -0.9970    4.1941 C.3       1 <0>         0.1883
     23 C23        -0.0078   -2.6730    3.2260 C.3       1 <0>         0.1952
     24 N1          1.3401   -4.9869    6.8682 N.pl3     1 <0>        -0.7670
     25 N2          1.7920   -1.3156    2.2000 N.am      1 <0>        -0.4509
     26 N3         -2.5447    0.9705    7.3098 N.pl3     1 <0>        -0.8477
     27 N4         -2.8329    1.6855    5.0381 N.pl3     1 <0>        -0.8633
     28 N5         -3.0875   -0.6486    5.5765 N.pl3     1 <0>        -0.7419
     29 N6          0.7961   -3.6905    3.9267 N.pl3     1 <0>        -0.8860
     30 O1          0.8941   -0.3947   -0.3706 O.2       1 <0>        -0.5199
     31 O2          0.7326   -0.6231    4.1542 O.2       1 <0>        -0.6131
     32 O3          1.3500   -6.1855    4.2455 O.2       1 <0>        -0.6576
     33 O4         -0.7339   -5.5366    2.9962 O.2       1 <0>        -0.6482
     34 O5          0.4997   -2.5717   -0.9193 O.3       1 <0>        -0.6303
     35 S1          0.2254   -5.2894    4.0556 S.o2      1 <0>         1.5193
     36 H1         -3.9272   -5.3514    6.5631 H         1 <0>         0.1426
     37 H2         -2.8460   -5.0943    8.7703 H         1 <0>         0.1398
     38 H3         -2.5369   -5.4268    4.5019 H         1 <0>         0.1599
     39 H4         -0.8030   -4.2318    9.9673 H         1 <0>         0.0574
     40 H5         -0.1565   -5.8697    9.7881 H         1 <0>         0.0629
     41 H6          4.6862    0.4377    1.6990 H         1 <0>         0.0614
     42 H7          4.5556   -1.1085    2.5390 H         1 <0>         0.0593
     43 H8          3.7056   -3.1781    1.2199 H         1 <0>         0.0841
     44 H9          3.2100   -2.9795   -0.4573 H         1 <0>         0.0679
     45 H10         2.6813    0.3462    3.1608 H         1 <0>         0.0826
     46 H11         2.2276    0.5771    1.4744 H         1 <0>         0.0383
     47 H12         3.0237   -4.6099    8.0414 H         1 <0>         0.0556
     48 H13         2.1566   -6.0940    8.4317 H         1 <0>         0.0415
     49 H14         1.3264   -3.1308    1.2358 H         1 <0>         0.0851
     50 H15         1.7316   -4.4829   10.2012 H         1 <0>         0.0639
     51 H16         3.7098   -0.5563   -0.3523 H         1 <0>         0.0584
     52 H17         0.2205   -2.4295    8.8367 H         1 <0>         0.0401
     53 H18         1.6320   -2.2769    9.9008 H         1 <0>         0.0440
     54 H19         1.8571   -2.5275    8.1588 H         1 <0>         0.0459
     55 H20         5.5642   -2.5489   -0.4852 H         1 <0>         0.0456
     56 H21         5.9547   -0.8262   -0.6513 H         1 <0>         0.0366
     57 H22         6.1838   -1.6417    0.9078 H         1 <0>         0.0474
     58 H23        -1.4838   -0.3719    3.3933 H         1 <0>         0.0800
     59 H24        -2.3885   -1.4831    2.3599 H         1 <0>         0.0681
     60 H25        -1.9335   -3.3536    3.9489 H         1 <0>         0.0740
     61 H26        -1.0849   -2.2531    5.0271 H         1 <0>         0.0631
     62 H27        -4.0449   -1.8681    4.1933 H         1 <0>         0.0970
     63 H28        -3.9265   -0.1572    3.7507 H         1 <0>         0.0725
     64 H29        -0.1638   -2.9774    2.1921 H         1 <0>         0.0839
     65 H30         1.8703   -5.1206    6.0159 H         1 <0>         0.4531
     66 H31        -2.5273    0.2572    8.0338 H         1 <0>         0.4798
     67 H32        -2.3528    1.9278    7.5960 H         1 <0>         0.4881
     68 H33        -3.0315    1.4965    4.0587 H         1 <0>         0.4801
     69 H34        -2.6420    2.6489    5.3029 H         1 <0>         0.4806
     70 H35        -3.0717   -1.3769    6.2920 H         1 <0>         0.4689
     71 H36         1.8068   -3.5190    3.9555 H         1 <0>         0.4505
     72 H37        -0.0129   -2.2104   -1.6737 H         1 <0>         0.4443
@<TRIPOS>BOND
     1    1    2 ar
     2    1    3 ar
     3    2    4 ar
     4    3    6 ar
     5    4    5 ar
     6    4   10 1
     7    5    6 ar
     8    5   24 1
     9    6   35 1
    10    7   15 1
    11    7   30 2
    12    7   34 1
    13    8   23 1
    14    8   25 am
    15    8   31 2
    16    9   26 1
    17    9   27 1
    18    9   28 1
    19   10   16 1
    20   11   13 1
    21   11   17 1
    22   12   15 1
    23   12   17 1
    24   13   25 1
    25   14   16 1
    26   14   24 1
    27   15   25 1
    28   16   18 1
    29   17   19 1
    30   20   21 1
    31   20   22 1
    32   21   23 1
    33   22   28 1
    34   23   29 1
    35   29   35 1
    36   32   35 2
    37   33   35 2
    38    1   36 1
    39    2   37 1
    40    3   38 1
    41   10   39 1
    42   10   40 1
    43   11   41 1
    44   11   42 1
    45   12   43 1
    46   12   44 1
    47   13   45 1
    48   13   46 1
    49   14   47 1
    50   14   48 1
    51   15   49 1
    52   16   50 1
    53   17   51 1
    54   18   52 1
    55   18   53 1
    56   18   54 1
    57   19   55 1
    58   19   56 1
    59   19   57 1
    60   20   58 1
    61   20   59 1
    62   21   60 1
    63   21   61 1
    64   22   62 1
    65   22   63 1
    66   23   64 1
    67   24   65 1
    68   26   66 1
    69   26   67 1
    70   27   68 1
    71   27   69 1
    72   28   70 1
    73   29   71 1
    74   34   72 1
@<TRIPOS>MOLECULE
1dwc_ligand_232
   72    74     0     0     0
SMALL
USER_CHARGES

mmff94s_NoEstat = 80.04
@<TRIPOS>ATOM
      1 C1          2.9804   -6.8364   -3.8826 C.ar      1 <0>        -0.1945
      2 C2          2.9418   -6.7056   -5.2692 C.ar      1 <0>        -0.0294
      3 C3          2.4346   -5.8419   -3.0764 C.ar      1 <0>        -0.0143
      4 C4          2.3519   -5.5783   -5.8586 C.ar      1 <0>        -0.1552
      5 C5          1.8230   -4.5534   -5.0490 C.ar      1 <0>         0.3076
      6 C6          1.8576   -4.7107   -3.6559 C.ar      1 <0>        -0.4908
      7 C7          2.4038   -0.4910    2.4030 C.2       1 <0>         0.5994
      8 C8          2.9466   -1.3973   -0.6457 C.2       1 <0>         0.6462
      9 C9          6.2822    2.1931   -1.8793 C.cat     1 <0>         0.6305
     10 C10         2.3255   -5.4497   -7.3628 C.3       1 <0>        -0.0319
     11 C11         3.9178   -3.4419    2.3602 C.3       1 <0>        -0.0918
     12 C12         4.8012   -1.0545    2.5913 C.3       1 <0>        -0.0841
     13 C13         4.0430   -3.0960    0.8803 C.3       1 <0>         0.0870
     14 C14         1.3521   -3.1637   -7.0268 C.3       1 <0>         0.2023
     15 C15         3.6790   -0.7248    1.6100 C.3       1 <0>         0.0778
     16 C16         1.2367   -4.4677   -7.8231 C.3       1 <0>        -0.0746
     17 C17         4.6242   -2.4243    3.2705 C.3       1 <0>        -0.0681
     18 C18         1.3410   -4.2047   -9.3229 C.3       1 <0>        -0.0944
     19 C19         5.9763   -2.9527    3.7531 C.3       1 <0>        -0.0918
     20 C20         5.7415   -1.0578   -1.6401 C.3       1 <0>        -0.1192
     21 C21         4.5564   -1.3488   -2.5679 C.3       1 <0>        -0.0916
     22 C22         6.8115   -0.2136   -2.3213 C.3       1 <0>         0.1883
     23 C23         3.4544   -2.1251   -1.8653 C.3       1 <0>         0.1952
     24 N1          1.2318   -3.4255   -5.6050 N.pl3     1 <0>        -0.7670
     25 N2          3.5192   -1.7560    0.5781 N.am      1 <0>        -0.4509
     26 N3          5.7834    3.4227   -2.2967 N.pl3     1 <0>        -0.8477
     27 N4          6.7794    2.0667   -0.5867 N.pl3     1 <0>        -0.8633
     28 N5          6.2936    1.0837   -2.7315 N.pl3     1 <0>        -0.7419
     29 N6          2.2741   -2.2179   -2.7432 N.pl3     1 <0>        -0.8860
     30 O1          2.2729    0.3351    3.2940 O.2       1 <0>        -0.5199
     31 O2          2.0685   -0.5400   -0.7710 O.2       1 <0>        -0.6131
     32 O3         -0.1165   -3.1121   -3.0880 O.2       1 <0>        -0.6576
     33 O4          1.2896   -4.0436   -1.2226 O.2       1 <0>        -0.6482
     34 O5          1.4223   -1.3294    1.9894 O.3       1 <0>        -0.6303
     35 S1          1.1775   -3.5081   -2.5659 S.o2      1 <0>         1.5193
     36 H1          3.4328   -7.7153   -3.4316 H         1 <0>         0.1426
     37 H2          3.3680   -7.4891   -5.8914 H         1 <0>         0.1398
     38 H3          2.4534   -5.9358   -1.9953 H         1 <0>         0.1599
     39 H4          3.3132   -5.1073   -7.6968 H         1 <0>         0.0574
     40 H5          2.1395   -6.4300   -7.8186 H         1 <0>         0.0629
     41 H6          2.8510   -3.4591    2.6203 H         1 <0>         0.0614
     42 H7          4.2939   -4.4553    2.5428 H         1 <0>         0.0593
     43 H8          5.7524   -1.0436    2.0413 H         1 <0>         0.0841
     44 H9          4.8832   -0.2779    3.3625 H         1 <0>         0.0679
     45 H10         5.0934   -3.1114    0.5668 H         1 <0>         0.0826
     46 H11         3.5122   -3.8428    0.2819 H         1 <0>         0.0383
     47 H12         2.3133   -2.6740   -7.2264 H         1 <0>         0.0556
     48 H13         0.5637   -2.4650   -7.3281 H         1 <0>         0.0415
     49 H14         3.9015    0.2290    1.1168 H         1 <0>         0.0851
     50 H15         0.2527   -4.9144   -7.6261 H         1 <0>         0.0639
     51 H16         4.0032   -2.2947    4.1661 H         1 <0>         0.0584
     52 H17         0.4364   -3.7110   -9.6904 H         1 <0>         0.0401
     53 H18         2.1981   -3.5608   -9.5417 H         1 <0>         0.0440
     54 H19         1.4672   -5.1439   -9.8699 H         1 <0>         0.0459
     55 H20         5.8782   -3.4157    4.7396 H         1 <0>         0.0456
     56 H21         6.3665   -3.7022    3.0580 H         1 <0>         0.0366
     57 H22         6.7034   -2.1384    3.8257 H         1 <0>         0.0474
     58 H23         5.3842   -0.5386   -0.7426 H         1 <0>         0.0800
     59 H24         6.1956   -2.0004   -1.3135 H         1 <0>         0.0681
     60 H25         4.9119   -1.8947   -3.4517 H         1 <0>         0.0740
     61 H26         4.1396   -0.4017   -2.9334 H         1 <0>         0.0631
     62 H27         7.2104   -0.7195   -3.2063 H         1 <0>         0.0970
     63 H28         7.6418   -0.0344   -1.6309 H         1 <0>         0.0725
     64 H29         3.7703   -3.1244   -1.5692 H         1 <0>         0.0839
     65 H30         0.9344   -2.6826   -4.9846 H         1 <0>         0.4531
     66 H31         5.4119    3.5624   -3.2326 H         1 <0>         0.4798
     67 H32         5.7794    4.2246   -1.6707 H         1 <0>         0.4881
     68 H33         7.1515    1.1824   -0.2491 H         1 <0>         0.4801
     69 H34         6.7829    2.8555    0.0556 H         1 <0>         0.4806
     70 H35         5.9218    1.2075   -3.6745 H         1 <0>         0.4689
     71 H36         1.9407   -1.3323   -3.1385 H         1 <0>         0.4505
     72 H37         0.5902   -1.1952    2.4913 H         1 <0>         0.4443
@<TRIPOS>BOND
     1    1    2 ar
     2    1    3 ar
     3    2    4 ar
     4    3    6 ar
     5    4    5 ar
     6    4   10 1
     7    5    6 ar
     8    5   24 1
     9    6   35 1
    10    7   15 1
    11    7   30 2
    12    7   34 1
    13    8   23 1
    14    8   25 am
    15    8   31 2
    16    9   26 1
    17    9   27 1
    18    9   28 1
    19   10   16 1
    20   11   13 1
    21   11   17 1
    22   12   15 1
    23   12   17 1
    24   13   25 1
    25   14   16 1
    26   14   24 1
    27   15   25 1
    28   16   18 1
    29   17   19 1
    30   20   21 1
    31   20   22 1
    32   21   23 1
    33   22   28 1
    34   23   29 1
    35   29   35 1
    36   32   35 2
    37   33   35 2
    38    1   36 1
    39    2   37 1
    40    3   38 1
    41   10   39 1
    42   10   40 1
    43   11   41 1
    44   11   42 1
    45   12   43 1
    46   12   44 1
    47   13   45 1
    48   13   46 1
    49   14   47 1
    50   14   48 1
    51   15   49 1
    52   16   50 1
    53   17   51 1
    54   18   52 1
    55   18   53 1
    56   18   54 1
    57   19   55 1
    58   19   56 1
    59   19   57 1
    60   20   58 1
    61   20   59 1
    62   21   60 1
    63   21   61 1
    64   22   62 1
    65   22   63 1
    66   23   64 1
    67   24   65 1
    68   26   66 1
    69   26   67 1
    70   27   68 1
    71   27   69 1
    72   28   70 1
    73   29   71 1
    74   34   72 1
@<TRIPOS>MOLECULE
1dwc_ligand_233
   72    74     0     0     0
SMALL
USER_CHARGES

mmff94s_NoEstat = 80.05
@<TRIPOS>ATOM
      1 C1          3.3055   -6.8449   -1.9341 C.ar      1 <0>        -0.1945
      2 C2          3.8095   -7.1580   -3.1947 C.ar      1 <0>        -0.0294
      3 C3          2.5030   -5.7201   -1.7675 C.ar      1 <0>        -0.0143
      4 C4          3.5095   -6.3479   -4.2992 C.ar      1 <0>        -0.1552
      5 C5          2.7217   -5.1914   -4.1335 C.ar      1 <0>         0.3076
      6 C6          2.2111   -4.9017   -2.8599 C.ar      1 <0>        -0.4908
      7 C7          1.7641   -2.7212    2.0487 C.2       1 <0>         0.5994
      8 C8          2.9466   -1.3973   -0.6457 C.2       1 <0>         0.6462
      9 C9          7.8520   -2.9855   -5.5084 C.cat     1 <0>         0.6305
     10 C10         4.0704   -6.6982   -5.6567 C.3       1 <0>        -0.0319
     11 C11         5.0423   -3.2056    1.9033 C.3       1 <0>        -0.0918
     12 C12         3.6127   -1.4179    3.0409 C.3       1 <0>        -0.0841
     13 C13         4.8985   -2.2417    0.7304 C.3       1 <0>         0.0870
     14 C14         3.0733   -4.5524   -6.4856 C.3       1 <0>         0.2023
     15 C15         2.7323   -1.5757    1.8036 C.3       1 <0>         0.0778
     16 C16         3.2586   -6.0435   -6.7854 C.3       1 <0>        -0.0746
     17 C17         4.5907   -2.5900    3.2377 C.3       1 <0>        -0.0681
     18 C18         3.9400   -6.2504   -8.1353 C.3       1 <0>        -0.0944
     19 C19         5.7878   -2.1430    4.0786 C.3       1 <0>        -0.0918
     20 C20         5.1203   -2.1076   -3.7746 C.3       1 <0>        -0.1192
     21 C21         4.5564   -1.3488   -2.5679 C.3       1 <0>        -0.0916
     22 C22         6.2766   -1.3646   -4.4322 C.3       1 <0>         0.1883
     23 C23         3.4544   -2.1251   -1.8653 C.3       1 <0>         0.1952
     24 N1          2.4075   -4.3705   -5.2096 N.pl3     1 <0>        -0.7670
     25 N2          3.5192   -1.7560    0.5781 N.am      1 <0>        -0.4509
     26 N3          8.3200   -3.6596   -6.6316 N.pl3     1 <0>        -0.8477
     27 N4          8.4571   -3.2169   -4.2779 N.pl3     1 <0>        -0.8633
     28 N5          6.7875   -2.0816   -5.5916 N.pl3     1 <0>        -0.7419
     29 N6          2.2741   -2.2179   -2.7432 N.pl3     1 <0>        -0.8860
     30 O1          0.9797   -2.7895    2.9833 O.2       1 <0>        -0.5199
     31 O2          2.0685   -0.5400   -0.7710 O.2       1 <0>        -0.6131
     32 O3          0.1927   -3.4494   -3.6292 O.2       1 <0>        -0.6576
     33 O4          0.7527   -3.5815   -1.1810 O.2       1 <0>        -0.6482
     34 O5          1.8885   -3.6674    1.0861 O.3       1 <0>        -0.6303
     35 S1          1.1775   -3.5081   -2.5659 S.o2      1 <0>         1.5193
     36 H1          3.5358   -7.4800   -1.0832 H         1 <0>         0.1426
     37 H2          4.4333   -8.0405   -3.3162 H         1 <0>         0.1398
     38 H3          2.0998   -5.4697   -0.7914 H         1 <0>         0.1599
     39 H4          5.1147   -6.3633   -5.6949 H         1 <0>         0.0574
     40 H5          4.0627   -7.7864   -5.7947 H         1 <0>         0.0629
     41 H6          4.4221   -4.0890    1.7005 H         1 <0>         0.0614
     42 H7          6.0756   -3.5656    1.9699 H         1 <0>         0.0593
     43 H8          4.1829   -0.4841    2.9397 H         1 <0>         0.0841
     44 H9          2.9979   -1.3064    3.9432 H         1 <0>         0.0679
     45 H10         5.5377   -1.3623    0.8715 H         1 <0>         0.0826
     46 H11         5.2196   -2.7347   -0.1923 H         1 <0>         0.0383
     47 H12         4.0431   -4.0398   -6.4660 H         1 <0>         0.0556
     48 H13         2.4729   -4.0799   -7.2710 H         1 <0>         0.0415
     49 H14         2.1101   -0.6800    1.6885 H         1 <0>         0.0851
     50 H15         2.2693   -6.5190   -6.8298 H         1 <0>         0.0639
     51 H16         4.0846   -3.3774    3.8106 H         1 <0>         0.0584
     52 H17         3.2554   -6.0057   -8.9529 H         1 <0>         0.0401
     53 H18         4.8233   -5.6107   -8.2222 H         1 <0>         0.0440
     54 H19         4.2559   -7.2916   -8.2507 H         1 <0>         0.0459
     55 H20         6.0635   -2.9197    4.7982 H         1 <0>         0.0456
     56 H21         6.6531   -1.9424    3.4397 H         1 <0>         0.0366
     57 H22         5.5491   -1.2299    4.6321 H         1 <0>         0.0474
     58 H23         5.4592   -3.1007   -3.4560 H         1 <0>         0.0800
     59 H24         4.3307   -2.2553   -4.5204 H         1 <0>         0.0681
     60 H25         4.1906   -0.3664   -2.8945 H         1 <0>         0.0740
     61 H26         5.3633   -1.1575   -1.8491 H         1 <0>         0.0631
     62 H27         7.1023   -1.2161   -3.7290 H         1 <0>         0.0970
     63 H28         5.9419   -0.3800   -4.7739 H         1 <0>         0.0725
     64 H29         3.7703   -3.1244   -1.5692 H         1 <0>         0.0839
     65 H30         1.9026   -3.5116   -5.0286 H         1 <0>         0.4531
     66 H31         7.9076   -3.5238   -7.5507 H         1 <0>         0.4798
     67 H32         9.0943   -4.3159   -6.5622 H         1 <0>         0.4881
     68 H33         8.1401   -2.7412   -3.4366 H         1 <0>         0.4801
     69 H34         9.2337   -3.8676   -4.1870 H         1 <0>         0.4806
     70 H35         6.3638   -1.9326   -6.5086 H         1 <0>         0.4689
     71 H36         1.9407   -1.3323   -3.1385 H         1 <0>         0.4505
     72 H37         1.2722   -4.4174    1.2277 H         1 <0>         0.4443
@<TRIPOS>BOND
     1    1    2 ar
     2    1    3 ar
     3    2    4 ar
     4    3    6 ar
     5    4    5 ar
     6    4   10 1
     7    5    6 ar
     8    5   24 1
     9    6   35 1
    10    7   15 1
    11    7   30 2
    12    7   34 1
    13    8   23 1
    14    8   25 am
    15    8   31 2
    16    9   26 1
    17    9   27 1
    18    9   28 1
    19   10   16 1
    20   11   13 1
    21   11   17 1
    22   12   15 1
    23   12   17 1
    24   13   25 1
    25   14   16 1
    26   14   24 1
    27   15   25 1
    28   16   18 1
    29   17   19 1
    30   20   21 1
    31   20   22 1
    32   21   23 1
    33   22   28 1
    34   23   29 1
    35   29   35 1
    36   32   35 2
    37   33   35 2
    38    1   36 1
    39    2   37 1
    40    3   38 1
    41   10   39 1
    42   10   40 1
    43   11   41 1
    44   11   42 1
    45   12   43 1
    46   12   44 1
    47   13   45 1
    48   13   46 1
    49   14   47 1
    50   14   48 1
    51   15   49 1
    52   16   50 1
    53   17   51 1
    54   18   52 1
    55   18   53 1
    56   18   54 1
    57   19   55 1
    58   19   56 1
    59   19   57 1
    60   20   58 1
    61   20   59 1
    62   21   60 1
    63   21   61 1
    64   22   62 1
    65   22   63 1
    66   23   64 1
    67   24   65 1
    68   26   66 1
    69   26   67 1
    70   27   68 1
    71   27   69 1
    72   28   70 1
    73   29   71 1
    74   34   72 1
@<TRIPOS>MOLECULE
1dwc_ligand_234
   72    74     0     0     0
SMALL
USER_CHARGES

mmff94s_NoEstat = 80.07
@<TRIPOS>ATOM
      1 C1          0.0343   -4.8290    0.3749 C.ar      1 <0>        -0.1945
      2 C2         -1.2858   -4.3914    0.2897 C.ar      1 <0>        -0.0294
      3 C3          0.9049   -4.6189   -0.6903 C.ar      1 <0>        -0.0143
      4 C4         -1.7422   -3.7361   -0.8629 C.ar      1 <0>        -0.1552
      5 C5         -0.8751   -3.5454   -1.9570 C.ar      1 <0>         0.3076
      6 C6          0.4539   -3.9792   -1.8460 C.ar      1 <0>        -0.4908
      7 C7          1.8102   -1.5505    2.3702 C.2       1 <0>         0.5994
      8 C8          2.9466   -1.3973   -0.6457 C.2       1 <0>         0.6462
      9 C9          7.8126   -1.5752   -6.3980 C.cat     1 <0>         0.6305
     10 C10        -3.1781   -3.2753   -0.9407 C.3       1 <0>        -0.0319
     11 C11         4.4920   -3.4807    2.0801 C.3       1 <0>        -0.0918
     12 C12         4.1798   -1.0721    2.8769 C.3       1 <0>        -0.0841
     13 C13         4.5658   -2.7774    0.7291 C.3       1 <0>         0.0870
     14 C14        -2.7070   -2.6116   -3.3122 C.3       1 <0>         0.2023
     15 C15         3.1125   -1.0286    1.7861 C.3       1 <0>         0.0778
     16 C16        -3.3571   -2.1726   -1.9960 C.3       1 <0>        -0.0746
     17 C17         4.5869   -2.5050    3.2643 C.3       1 <0>        -0.0681
     18 C18        -4.8347   -1.8472   -2.1965 C.3       1 <0>        -0.0944
     19 C19         5.9882   -2.5079    3.8779 C.3       1 <0>        -0.0918
     20 C20         5.1203   -2.1076   -3.7746 C.3       1 <0>        -0.1192
     21 C21         4.5564   -1.3488   -2.5679 C.3       1 <0>        -0.0916
     22 C22         6.2766   -1.3646   -4.4322 C.3       1 <0>         0.1883
     23 C23         3.4544   -2.1251   -1.8653 C.3       1 <0>         0.1952
     24 N1         -1.2993   -2.8988   -3.1114 N.pl3     1 <0>        -0.7670
     25 N2          3.5192   -1.7560    0.5781 N.am      1 <0>        -0.4509
     26 N3          8.2843   -2.2817   -7.4995 N.pl3     1 <0>        -0.8477
     27 N4          8.3735   -0.3395   -6.0942 N.pl3     1 <0>        -0.8633
     28 N5          6.7875   -2.0816   -5.5916 N.pl3     1 <0>        -0.7419
     29 N6          2.2741   -2.2179   -2.7432 N.pl3     1 <0>        -0.8860
     30 O1          1.2492   -1.0925    3.3546 O.2       1 <0>        -0.5199
     31 O2          2.0685   -0.5400   -0.7710 O.2       1 <0>        -0.6131
     32 O3          2.6529   -4.7521   -3.0046 O.2       1 <0>        -0.6576
     33 O4          0.8695   -3.6258   -4.3741 O.2       1 <0>        -0.6482
     34 O5          1.3501   -2.6026    1.6500 O.3       1 <0>        -0.6303
     35 S1          1.6226   -3.7401   -3.1398 S.o2      1 <0>         1.5193
     36 H1          0.3842   -5.3302    1.2732 H         1 <0>         0.1426
     37 H2         -1.9583   -4.5572    1.1281 H         1 <0>         0.1398
     38 H3          1.9370   -4.9499   -0.6329 H         1 <0>         0.1599
     39 H4         -3.8054   -4.1420   -1.1852 H         1 <0>         0.0574
     40 H5         -3.5014   -2.8930    0.0353 H         1 <0>         0.0629
     41 H6          3.5311   -4.0088    2.1410 H         1 <0>         0.0614
     42 H7          5.2694   -4.2509    2.1463 H         1 <0>         0.0593
     43 H8          5.0641   -0.5305    2.5137 H         1 <0>         0.0841
     44 H9          3.8399   -0.5392    3.7741 H         1 <0>         0.0679
     45 H10         5.5312   -2.2723    0.6079 H         1 <0>         0.0826
     46 H11         4.4795   -3.5150   -0.0747 H         1 <0>         0.0383
     47 H12        -3.2070   -3.5034   -3.7102 H         1 <0>         0.0556
     48 H13        -2.8054   -1.8217   -4.0651 H         1 <0>         0.0415
     49 H14         2.9188    0.0160    1.5141 H         1 <0>         0.0851
     50 H15        -2.8555   -1.2615   -1.6426 H         1 <0>         0.0639
     51 H16         3.9047   -2.8651    4.0450 H         1 <0>         0.0584
     52 H17        -4.9503   -0.9123   -2.7530 H         1 <0>         0.0401
     53 H18        -5.3316   -2.6451   -2.7565 H         1 <0>         0.0440
     54 H19        -5.3386   -1.7381   -1.2315 H         1 <0>         0.0459
     55 H20         6.0310   -3.1862    4.7353 H         1 <0>         0.0456
     56 H21         6.7293   -2.8350    3.1425 H         1 <0>         0.0366
     57 H22         6.2606   -1.5045    4.2187 H         1 <0>         0.0474
     58 H23         5.4592   -3.1007   -3.4560 H         1 <0>         0.0800
     59 H24         4.3307   -2.2553   -4.5204 H         1 <0>         0.0681
     60 H25         4.1906   -0.3664   -2.8945 H         1 <0>         0.0740
     61 H26         5.3633   -1.1575   -1.8491 H         1 <0>         0.0631
     62 H27         7.1023   -1.2161   -3.7290 H         1 <0>         0.0970
     63 H28         5.9419   -0.3800   -4.7739 H         1 <0>         0.0725
     64 H29         3.7703   -3.1244   -1.5692 H         1 <0>         0.0839
     65 H30        -0.6638   -2.8524   -3.8984 H         1 <0>         0.4531
     66 H31         7.9061   -3.1889   -7.7584 H         1 <0>         0.4798
     67 H32         9.0306   -1.9064   -8.0803 H         1 <0>         0.4881
     68 H33         8.0525    0.2034   -5.2962 H         1 <0>         0.4801
     69 H34         9.1192    0.0544   -6.6629 H         1 <0>         0.4806
     70 H35         6.3957   -2.9912   -5.8400 H         1 <0>         0.4689
     71 H36         1.6613   -1.3957   -2.7560 H         1 <0>         0.4505
     72 H37         0.5099   -2.9556    2.0129 H         1 <0>         0.4443
@<TRIPOS>BOND
     1    1    2 ar
     2    1    3 ar
     3    2    4 ar
     4    3    6 ar
     5    4    5 ar
     6    4   10 1
     7    5    6 ar
     8    5   24 1
     9    6   35 1
    10    7   15 1
    11    7   30 2
    12    7   34 1
    13    8   23 1
    14    8   25 am
    15    8   31 2
    16    9   26 1
    17    9   27 1
    18    9   28 1
    19   10   16 1
    20   11   13 1
    21   11   17 1
    22   12   15 1
    23   12   17 1
    24   13   25 1
    25   14   16 1
    26   14   24 1
    27   15   25 1
    28   16   18 1
    29   17   19 1
    30   20   21 1
    31   20   22 1
    32   21   23 1
    33   22   28 1
    34   23   29 1
    35   29   35 1
    36   32   35 2
    37   33   35 2
    38    1   36 1
    39    2   37 1
    40    3   38 1
    41   10   39 1
    42   10   40 1
    43   11   41 1
    44   11   42 1
    45   12   43 1
    46   12   44 1
    47   13   45 1
    48   13   46 1
    49   14   47 1
    50   14   48 1
    51   15   49 1
    52   16   50 1
    53   17   51 1
    54   18   52 1
    55   18   53 1
    56   18   54 1
    57   19   55 1
    58   19   56 1
    59   19   57 1
    60   20   58 1
    61   20   59 1
    62   21   60 1
    63   21   61 1
    64   22   62 1
    65   22   63 1
    66   23   64 1
    67   24   65 1
    68   26   66 1
    69   26   67 1
    70   27   68 1
    71   27   69 1
    72   28   70 1
    73   29   71 1
    74   34   72 1
@<TRIPOS>MOLECULE
1dwc_ligand_235
   72    74     0     0     0
SMALL
USER_CHARGES

mmff94s_NoEstat = 80.09
@<TRIPOS>ATOM
      1 C1          0.3205    0.2218    6.9260 C.ar      1 <0>        -0.1945
      2 C2          0.4995    1.4601    6.3130 C.ar      1 <0>        -0.0294
      3 C3         -0.5256   -0.7215    6.3505 C.ar      1 <0>        -0.0143
      4 C4         -0.1655    1.7608    5.1157 C.ar      1 <0>        -0.1552
      5 C5         -1.0462    0.8223    4.5419 C.ar      1 <0>         0.3076
      6 C6         -1.2011   -0.4241    5.1658 C.ar      1 <0>        -0.4908
      7 C7          3.5686   -3.4379    3.7704 C.2       1 <0>         0.5994
      8 C8          0.8654   -1.4427    3.2413 C.2       1 <0>         0.6462
      9 C9          0.2237   -3.7376   -2.9912 C.cat     1 <0>         0.6305
     10 C10         0.0346    3.1106    4.4690 C.3       1 <0>        -0.0319
     11 C11         3.4440   -0.0674    5.4719 C.3       1 <0>        -0.0918
     12 C12         3.1682   -2.4952    6.0163 C.3       1 <0>        -0.0841
     13 C13         2.9000   -0.3276    4.0730 C.3       1 <0>         0.0870
     14 C14        -1.7112    2.4331    2.8019 C.3       1 <0>         0.2023
     15 C15         2.5392   -2.7371    4.6417 C.3       1 <0>         0.0778
     16 C16        -0.3325    3.0781    2.9771 C.3       1 <0>        -0.0746
     17 C17         4.1435   -1.3104    6.0281 C.3       1 <0>        -0.0681
     18 C18        -0.3048    4.4824    2.3800 C.3       1 <0>        -0.0944
     19 C19         4.6673   -1.0527    7.4396 C.3       1 <0>        -0.0918
     20 C20         0.0249   -2.8727    0.7002 C.3       1 <0>        -0.1192
     21 C21         0.3004   -3.5693    2.0376 C.3       1 <0>        -0.0916
     22 C22         0.2602   -3.7963   -0.4886 C.3       1 <0>         0.1883
     23 C23        -0.0078   -2.6730    3.2260 C.3       1 <0>         0.1952
     24 N1         -1.7179    1.0923    3.3560 N.pl3     1 <0>        -0.7670
     25 N2          2.0252   -1.5038    4.0223 N.am      1 <0>        -0.4509
     26 N3         -0.0152   -3.0669   -4.1862 N.pl3     1 <0>        -0.8477
     27 N4          0.6744   -5.0526   -3.0302 N.pl3     1 <0>        -0.8633
     28 N5          0.0202   -3.1173   -1.7538 N.pl3     1 <0>        -0.7419
     29 N6         -1.3760   -2.1385    3.1042 N.pl3     1 <0>        -0.8860
     30 O1          4.3335   -2.8779    2.9993 O.2       1 <0>        -0.5199
     31 O2          0.5240   -0.4555    2.5844 O.2       1 <0>        -0.6131
     32 O3         -2.2645   -2.7847    5.4337 O.2       1 <0>        -0.6576
     33 O4         -3.4757   -1.0330    4.0961 O.2       1 <0>        -0.6482
     34 O5          3.5241   -4.7791    3.9616 O.3       1 <0>        -0.6303
     35 S1         -2.2397   -1.6774    4.4970 S.o2      1 <0>         1.5193
     36 H1          0.8435   -0.0082    7.8502 H         1 <0>         0.1426
     37 H2          1.1648    2.1899    6.7682 H         1 <0>         0.1398
     38 H3         -0.6680   -1.6917    6.8158 H         1 <0>         0.1599
     39 H4         -0.5887    3.8423    4.9988 H         1 <0>         0.0574
     40 H5          1.0806    3.4239    4.5739 H         1 <0>         0.0629
     41 H6          4.1435    0.7764    5.4419 H         1 <0>         0.0614
     42 H7          2.6191    0.2214    6.1357 H         1 <0>         0.0593
     43 H8          2.3618   -2.2928    6.7345 H         1 <0>         0.0841
     44 H9          3.6813   -3.3988    6.3690 H         1 <0>         0.0679
     45 H10         2.3679    0.5618    3.7197 H         1 <0>         0.0826
     46 H11         3.7232   -0.5081    3.3711 H         1 <0>         0.0383
     47 H12        -2.4838    3.0348    3.2965 H         1 <0>         0.0556
     48 H13        -1.9724    2.3804    1.7391 H         1 <0>         0.0415
     49 H14         1.7211   -3.4548    4.7590 H         1 <0>         0.0851
     50 H15         0.4108    2.4697    2.4442 H         1 <0>         0.0639
     51 H16         5.0063   -1.5479    5.3937 H         1 <0>         0.0584
     52 H17        -0.3231    4.4358    1.2871 H         1 <0>         0.0401
     53 H18        -1.1718    5.0598    2.7148 H         1 <0>         0.0440
     54 H19         0.6017    5.0127    2.6870 H         1 <0>         0.0459
     55 H20         4.2777   -1.8006    8.1367 H         1 <0>         0.0456
     56 H21         5.7602   -1.1000    7.4588 H         1 <0>         0.0366
     57 H22         4.3590   -0.0627    7.7891 H         1 <0>         0.0474
     58 H23        -1.0105   -2.5120    0.6824 H         1 <0>         0.0800
     59 H24         0.6776   -1.9980    0.5976 H         1 <0>         0.0681
     60 H25         1.3460   -3.9033    2.0652 H         1 <0>         0.0740
     61 H26        -0.3175   -4.4733    2.1109 H         1 <0>         0.0631
     62 H27        -0.3909   -4.6751   -0.4416 H         1 <0>         0.0970
     63 H28         1.2981   -4.1440   -0.4920 H         1 <0>         0.0725
     64 H29         0.1003   -3.1895    4.1787 H         1 <0>         0.0839
     65 H30        -2.3965    0.4186    3.0229 H         1 <0>         0.4531
     66 H31        -0.3470   -2.1063   -4.2064 H         1 <0>         0.4798
     67 H32         0.1347   -3.5257   -5.0818 H         1 <0>         0.4881
     68 H33         0.8589   -5.5723   -2.1756 H         1 <0>         0.4801
     69 H34         0.8324   -5.5290   -3.9149 H         1 <0>         0.4806
     70 H35        -0.3110   -2.1514   -1.7574 H         1 <0>         0.4689
     71 H36        -1.6042   -1.6955    2.2078 H         1 <0>         0.4505
     72 H37         4.1809   -5.2504    3.4059 H         1 <0>         0.4443
@<TRIPOS>BOND
     1    1    2 ar
     2    1    3 ar
     3    2    4 ar
     4    3    6 ar
     5    4    5 ar
     6    4   10 1
     7    5    6 ar
     8    5   24 1
     9    6   35 1
    10    7   15 1
    11    7   30 2
    12    7   34 1
    13    8   23 1
    14    8   25 am
    15    8   31 2
    16    9   26 1
    17    9   27 1
    18    9   28 1
    19   10   16 1
    20   11   13 1
    21   11   17 1
    22   12   15 1
    23   12   17 1
    24   13   25 1
    25   14   16 1
    26   14   24 1
    27   15   25 1
    28   16   18 1
    29   17   19 1
    30   20   21 1
    31   20   22 1
    32   21   23 1
    33   22   28 1
    34   23   29 1
    35   29   35 1
    36   32   35 2
    37   33   35 2
    38    1   36 1
    39    2   37 1
    40    3   38 1
    41   10   39 1
    42   10   40 1
    43   11   41 1
    44   11   42 1
    45   12   43 1
    46   12   44 1
    47   13   45 1
    48   13   46 1
    49   14   47 1
    50   14   48 1
    51   15   49 1
    52   16   50 1
    53   17   51 1
    54   18   52 1
    55   18   53 1
    56   18   54 1
    57   19   55 1
    58   19   56 1
    59   19   57 1
    60   20   58 1
    61   20   59 1
    62   21   60 1
    63   21   61 1
    64   22   62 1
    65   22   63 1
    66   23   64 1
    67   24   65 1
    68   26   66 1
    69   26   67 1
    70   27   68 1
    71   27   69 1
    72   28   70 1
    73   29   71 1
    74   34   72 1
@<TRIPOS>MOLECULE
1dwc_ligand_236
   72    74     0     0     0
SMALL
USER_CHARGES

mmff94s_NoEstat = 80.09
@<TRIPOS>ATOM
      1 C1          4.1725   -3.9457    0.5164 C.ar      1 <0>        -0.1945
      2 C2          5.2841   -3.7273    1.3275 C.ar      1 <0>        -0.0294
      3 C3          2.9716   -4.3618    1.0830 C.ar      1 <0>        -0.0143
      4 C4          5.2014   -3.9281    2.7130 C.ar      1 <0>        -0.1552
      5 C5          3.9817   -4.3215    3.2977 C.ar      1 <0>         0.3076
      6 C6          2.8785   -4.5513    2.4628 C.ar      1 <0>        -0.4908
      7 C7         -1.2359   -0.6984    0.6725 C.2       1 <0>         0.5994
      8 C8          0.8654   -1.4427    3.2413 C.2       1 <0>         0.6462
      9 C9         -5.1550   -2.5406    2.8628 C.cat     1 <0>         0.6305
     10 C10         6.4147   -3.6782    3.5763 C.3       1 <0>        -0.0319
     11 C11         1.8315    1.4466    1.1834 C.3       1 <0>        -0.0918
     12 C12         0.9831   -0.3423   -0.3484 C.3       1 <0>        -0.0841
     13 C13         1.0260    0.8397    2.3251 C.3       1 <0>         0.0870
     14 C14         4.9375   -4.1225    5.5597 C.3       1 <0>         0.2023
     15 C15         0.2462   -1.0009    0.8207 C.3       1 <0>         0.0778
     16 C16         6.3180   -4.3739    4.9439 C.3       1 <0>        -0.0746
     17 C17         1.1635    1.1707   -0.1661 C.3       1 <0>        -0.0681
     18 C18         6.6369   -5.8702    4.8481 C.3       1 <0>        -0.0944
     19 C19         1.9862    1.7609   -1.3098 C.3       1 <0>        -0.0918
     20 C20        -2.2331   -3.6727    3.9110 C.3       1 <0>        -0.1192
     21 C21        -1.3133   -2.4479    3.9716 C.3       1 <0>        -0.0916
     22 C22        -3.5726   -3.4201    4.5920 C.3       1 <0>         0.1883
     23 C23        -0.0078   -2.6730    3.2260 C.3       1 <0>         0.1952
     24 N1          3.8720   -4.5353    4.6659 N.pl3     1 <0>        -0.7670
     25 N2          0.7744   -0.5925    2.1333 N.am      1 <0>        -0.4509
     26 N3         -5.8450   -1.4865    2.2730 N.pl3     1 <0>        -0.8477
     27 N4         -5.3158   -3.8250    2.3544 N.pl3     1 <0>        -0.8633
     28 N5         -4.3046   -2.3352    3.9546 N.pl3     1 <0>        -0.7419
     29 N6          0.7961   -3.6905    3.9267 N.pl3     1 <0>        -0.8860
     30 O1         -1.9090   -0.9539   -0.3149 O.2       1 <0>        -0.5199
     31 O2          1.6103   -1.2468    4.2054 O.2       1 <0>        -0.6131
     32 O3          0.4439   -5.3314    1.9729 O.2       1 <0>        -0.6576
     33 O4          1.5968   -6.1309    4.0600 O.2       1 <0>        -0.6482
     34 O5         -1.7163   -0.0998    1.7897 O.3       1 <0>        -0.6303
     35 S1          1.3247   -5.0804    3.0977 S.o2      1 <0>         1.5193
     36 H1          4.2441   -3.7946   -0.5573 H         1 <0>         0.1426
     37 H2          6.2192   -3.4050    0.8758 H         1 <0>         0.1398
     38 H3          2.1006   -4.5409    0.4604 H         1 <0>         0.1599
     39 H4          7.3229   -4.0105    3.0588 H         1 <0>         0.0574
     40 H5          6.4984   -2.5945    3.7281 H         1 <0>         0.0629
     41 H6          1.9320    2.5271    1.3399 H         1 <0>         0.0614
     42 H7          2.8448    1.0248    1.1881 H         1 <0>         0.0593
     43 H8          1.9753   -0.8057   -0.4365 H         1 <0>         0.0841
     44 H9          0.4607   -0.5403   -1.2930 H         1 <0>         0.0679
     45 H10         1.5496    1.0140    3.2709 H         1 <0>         0.0826
     46 H11         0.0484    1.3304    2.4051 H         1 <0>         0.0383
     47 H12         4.8400   -4.6591    6.5101 H         1 <0>         0.0556
     48 H13         4.8208   -3.0544    5.7810 H         1 <0>         0.0415
     49 H14         0.3330   -2.0869    0.7143 H         1 <0>         0.0851
     50 H15         7.0781   -3.9378    5.6038 H         1 <0>         0.0639
     51 H16         0.1795    1.6553   -0.1825 H         1 <0>         0.0584
     52 H17         6.7417   -6.1747    3.8024 H         1 <0>         0.0401
     53 H18         7.5719   -6.0982    5.3686 H         1 <0>         0.0440
     54 H19         5.8369   -6.4634    5.3010 H         1 <0>         0.0459
     55 H20         1.9407    1.1129   -2.1902 H         1 <0>         0.0456
     56 H21         1.6048    2.7479   -1.5883 H         1 <0>         0.0366
     57 H22         3.0342    1.8673   -1.0143 H         1 <0>         0.0474
     58 H23        -2.4032   -3.9506    2.8639 H         1 <0>         0.0800
     59 H24        -1.7473   -4.5245    4.4007 H         1 <0>         0.0681
     60 H25        -1.1204   -2.1894    5.0211 H         1 <0>         0.0740
     61 H26        -1.8263   -1.5854    3.5275 H         1 <0>         0.0631
     62 H27        -3.4379   -3.1690    5.6489 H         1 <0>         0.0970
     63 H28        -4.1962   -4.3179    4.5344 H         1 <0>         0.0725
     64 H29        -0.1638   -2.9774    2.1921 H         1 <0>         0.0839
     65 H30         2.9570   -4.7435    5.0468 H         1 <0>         0.4531
     66 H31        -5.7600   -0.5320    2.6119 H         1 <0>         0.4798
     67 H32        -6.4620   -1.6448    1.4797 H         1 <0>         0.4881
     68 H33        -4.8265   -4.6183    2.7616 H         1 <0>         0.4801
     69 H34        -5.9263   -4.0045    1.5608 H         1 <0>         0.4806
     70 H35        -4.2070   -1.3812    4.3054 H         1 <0>         0.4689
     71 H36         1.3354   -3.3564    4.7325 H         1 <0>         0.4505
     72 H37        -2.6725    0.1056    1.7130 H         1 <0>         0.4443
@<TRIPOS>BOND
     1    1    2 ar
     2    1    3 ar
     3    2    4 ar
     4    3    6 ar
     5    4    5 ar
     6    4   10 1
     7    5    6 ar
     8    5   24 1
     9    6   35 1
    10    7   15 1
    11    7   30 2
    12    7   34 1
    13    8   23 1
    14    8   25 am
    15    8   31 2
    16    9   26 1
    17    9   27 1
    18    9   28 1
    19   10   16 1
    20   11   13 1
    21   11   17 1
    22   12   15 1
    23   12   17 1
    24   13   25 1
    25   14   16 1
    26   14   24 1
    27   15   25 1
    28   16   18 1
    29   17   19 1
    30   20   21 1
    31   20   22 1
    32   21   23 1
    33   22   28 1
    34   23   29 1
    35   29   35 1
    36   32   35 2
    37   33   35 2
    38    1   36 1
    39    2   37 1
    40    3   38 1
    41   10   39 1
    42   10   40 1
    43   11   41 1
    44   11   42 1
    45   12   43 1
    46   12   44 1
    47   13   45 1
    48   13   46 1
    49   14   47 1
    50   14   48 1
    51   15   49 1
    52   16   50 1
    53   17   51 1
    54   18   52 1
    55   18   53 1
    56   18   54 1
    57   19   55 1
    58   19   56 1
    59   19   57 1
    60   20   58 1
    61   20   59 1
    62   21   60 1
    63   21   61 1
    64   22   62 1
    65   22   63 1
    66   23   64 1
    67   24   65 1
    68   26   66 1
    69   26   67 1
    70   27   68 1
    71   27   69 1
    72   28   70 1
    73   29   71 1
    74   34   72 1
@<TRIPOS>MOLECULE
1dwc_ligand_237
   72    74     0     0     0
SMALL
USER_CHARGES

mmff94s_NoEstat = 80.11
@<TRIPOS>ATOM
      1 C1          3.6731   -6.5760   -1.9164 C.ar      1 <0>        -0.1945
      2 C2          3.8499   -7.1307   -3.1822 C.ar      1 <0>        -0.0294
      3 C3          2.8506   -5.4650   -1.7544 C.ar      1 <0>        -0.0143
      4 C4          3.2001   -6.5782   -4.2952 C.ar      1 <0>        -0.1552
      5 C5          2.3887   -5.4360   -4.1443 C.ar      1 <0>         0.3076
      6 C6          2.2111   -4.9017   -2.8599 C.ar      1 <0>        -0.4908
      7 C7          1.7641   -2.7212    2.0487 C.2       1 <0>         0.5994
      8 C8          2.9466   -1.3973   -0.6457 C.2       1 <0>         0.6462
      9 C9          8.5933   -0.5790   -3.8993 C.cat     1 <0>         0.6305
     10 C10         3.4090   -7.1879   -5.6607 C.3       1 <0>        -0.0319
     11 C11         5.0423   -3.2056    1.9033 C.3       1 <0>        -0.0918
     12 C12         3.6127   -1.4179    3.0409 C.3       1 <0>        -0.0841
     13 C13         4.8985   -2.2417    0.7304 C.3       1 <0>         0.0870
     14 C14         2.0489   -5.2924   -6.5791 C.3       1 <0>         0.2023
     15 C15         2.7323   -1.5757    1.8036 C.3       1 <0>         0.0778
     16 C16         2.2745   -6.8073   -6.6248 C.3       1 <0>        -0.0746
     17 C17         4.5907   -2.5900    3.2377 C.3       1 <0>        -0.0681
     18 C18         2.5890   -7.2717   -8.0443 C.3       1 <0>        -0.0944
     19 C19         5.7878   -2.1430    4.0786 C.3       1 <0>        -0.0918
     20 C20         5.1203   -2.1076   -3.7746 C.3       1 <0>        -0.1192
     21 C21         4.5564   -1.3488   -2.5679 C.3       1 <0>        -0.0916
     22 C22         6.2766   -1.3646   -4.4322 C.3       1 <0>         0.1883
     23 C23         3.4544   -2.1251   -1.8653 C.3       1 <0>         0.1952
     24 N1          1.7320   -4.8675   -5.2287 N.pl3     1 <0>        -0.7670
     25 N2          3.5192   -1.7560    0.5781 N.am      1 <0>        -0.4509
     26 N3          9.6431   -0.4158   -3.0015 N.pl3     1 <0>        -0.8477
     27 N4          8.7440   -0.1312   -5.2072 N.pl3     1 <0>        -0.8633
     28 N5          7.3917   -1.1832   -3.5140 N.pl3     1 <0>        -0.7419
     29 N6          2.2741   -2.2179   -2.7432 N.pl3     1 <0>        -0.8860
     30 O1          1.9558   -3.8837    1.7243 O.2       1 <0>        -0.5199
     31 O2          2.0685   -0.5400   -0.7710 O.2       1 <0>        -0.6131
     32 O3          0.1927   -3.4494   -3.6292 O.2       1 <0>        -0.6576
     33 O4          0.7527   -3.5815   -1.1810 O.2       1 <0>        -0.6482
     34 O5          0.6482   -2.2786    2.6781 O.3       1 <0>        -0.6303
     35 S1          1.1775   -3.5081   -2.5659 S.o2      1 <0>         1.5193
     36 H1          4.1738   -7.0124   -1.0565 H         1 <0>         0.1426
     37 H2          4.4920   -8.0005   -3.2989 H         1 <0>         0.1398
     38 H3          2.7006   -5.0281   -0.7723 H         1 <0>         0.1599
     39 H4          4.3735   -6.8381   -6.0503 H         1 <0>         0.0574
     40 H5          3.4578   -8.2807   -5.5786 H         1 <0>         0.0629
     41 H6          4.4221   -4.0890    1.7005 H         1 <0>         0.0614
     42 H7          6.0756   -3.5656    1.9699 H         1 <0>         0.0593
     43 H8          4.1829   -0.4841    2.9397 H         1 <0>         0.0841
     44 H9          2.9979   -1.3064    3.9432 H         1 <0>         0.0679
     45 H10         5.5377   -1.3623    0.8715 H         1 <0>         0.0826
     46 H11         5.2196   -2.7347   -0.1923 H         1 <0>         0.0383
     47 H12         2.9420   -4.7591   -6.9279 H         1 <0>         0.0556
     48 H13         1.2239   -5.0122   -7.2434 H         1 <0>         0.0415
     49 H14         2.1101   -0.6800    1.6885 H         1 <0>         0.0851
     50 H15         1.3531   -7.3101   -6.3012 H         1 <0>         0.0639
     51 H16         4.0846   -3.3774    3.8106 H         1 <0>         0.0584
     52 H17         1.6940   -7.2231   -8.6717 H         1 <0>         0.0401
     53 H18         3.3599   -6.6388   -8.4940 H         1 <0>         0.0440
     54 H19         2.9505   -8.3043   -8.0395 H         1 <0>         0.0459
     55 H20         6.0635   -2.9197    4.7982 H         1 <0>         0.0456
     56 H21         6.6531   -1.9424    3.4397 H         1 <0>         0.0366
     57 H22         5.5491   -1.2299    4.6321 H         1 <0>         0.0474
     58 H23         5.4592   -3.1007   -3.4560 H         1 <0>         0.0800
     59 H24         4.3307   -2.2553   -4.5204 H         1 <0>         0.0681
     60 H25         4.1906   -0.3664   -2.8945 H         1 <0>         0.0740
     61 H26         5.3633   -1.1575   -1.8491 H         1 <0>         0.0631
     62 H27         5.9616   -0.3787   -4.7887 H         1 <0>         0.0970
     63 H28         6.6457   -1.9332   -5.2916 H         1 <0>         0.0725
     64 H29         3.7703   -3.1244   -1.5692 H         1 <0>         0.0839
     65 H30         1.2218   -4.0048   -5.0843 H         1 <0>         0.4531
     66 H31         9.5774   -0.7257   -2.0356 H         1 <0>         0.4798
     67 H32        10.5134    0.0253   -3.2898 H         1 <0>         0.4881
     68 H33         7.9967   -0.2346   -5.8893 H         1 <0>         0.4801
     69 H34         9.6064    0.3108   -5.5164 H         1 <0>         0.4806
     70 H35         7.3110   -1.5018   -2.5472 H         1 <0>         0.4689
     71 H36         1.9407   -1.3323   -3.1385 H         1 <0>         0.4505
     72 H37         0.0089   -3.0039    2.8438 H         1 <0>         0.4443
@<TRIPOS>BOND
     1    1    2 ar
     2    1    3 ar
     3    2    4 ar
     4    3    6 ar
     5    4    5 ar
     6    4   10 1
     7    5    6 ar
     8    5   24 1
     9    6   35 1
    10    7   15 1
    11    7   30 2
    12    7   34 1
    13    8   23 1
    14    8   25 am
    15    8   31 2
    16    9   26 1
    17    9   27 1
    18    9   28 1
    19   10   16 1
    20   11   13 1
    21   11   17 1
    22   12   15 1
    23   12   17 1
    24   13   25 1
    25   14   16 1
    26   14   24 1
    27   15   25 1
    28   16   18 1
    29   17   19 1
    30   20   21 1
    31   20   22 1
    32   21   23 1
    33   22   28 1
    34   23   29 1
    35   29   35 1
    36   32   35 2
    37   33   35 2
    38    1   36 1
    39    2   37 1
    40    3   38 1
    41   10   39 1
    42   10   40 1
    43   11   41 1
    44   11   42 1
    45   12   43 1
    46   12   44 1
    47   13   45 1
    48   13   46 1
    49   14   47 1
    50   14   48 1
    51   15   49 1
    52   16   50 1
    53   17   51 1
    54   18   52 1
    55   18   53 1
    56   18   54 1
    57   19   55 1
    58   19   56 1
    59   19   57 1
    60   20   58 1
    61   20   59 1
    62   21   60 1
    63   21   61 1
    64   22   62 1
    65   22   63 1
    66   23   64 1
    67   24   65 1
    68   26   66 1
    69   26   67 1
    70   27   68 1
    71   27   69 1
    72   28   70 1
    73   29   71 1
    74   34   72 1
@<TRIPOS>MOLECULE
1dwc_ligand_238
   72    74     0     0     0
SMALL
USER_CHARGES

mmff94s_NoEstat = 80.12
@<TRIPOS>ATOM
      1 C1          2.9804   -6.8364   -3.8826 C.ar      1 <0>        -0.1945
      2 C2          2.9418   -6.7056   -5.2692 C.ar      1 <0>        -0.0294
      3 C3          2.4346   -5.8419   -3.0764 C.ar      1 <0>        -0.0143
      4 C4          2.3519   -5.5783   -5.8586 C.ar      1 <0>        -0.1552
      5 C5          1.8230   -4.5534   -5.0490 C.ar      1 <0>         0.3076
      6 C6          1.8576   -4.7107   -3.6559 C.ar      1 <0>        -0.4908
      7 C7          2.6281   -1.3042    2.5638 C.2       1 <0>         0.5994
      8 C8          2.9466   -1.3973   -0.6457 C.2       1 <0>         0.6462
      9 C9          7.4792    1.6086   -3.5387 C.cat     1 <0>         0.6305
     10 C10         2.3255   -5.4497   -7.3628 C.3       1 <0>        -0.0319
     11 C11         5.7543   -2.0741    1.7663 C.3       1 <0>        -0.0918
     12 C12         4.6161    0.1433    2.3333 C.3       1 <0>        -0.0841
     13 C13         5.2430   -1.7129    0.3758 C.3       1 <0>         0.0870
     14 C14         1.3521   -3.1637   -7.0268 C.3       1 <0>         0.2023
     15 C15         3.4337   -0.4666    1.5844 C.3       1 <0>         0.0778
     16 C16         1.2367   -4.4677   -7.8231 C.3       1 <0>        -0.0746
     17 C17         5.6648   -0.9011    2.7560 C.3       1 <0>        -0.0681
     18 C18         1.3410   -4.2047   -9.3229 C.3       1 <0>        -0.0944
     19 C19         7.0265   -0.2323    2.9523 C.3       1 <0>        -0.0918
     20 C20         4.0666    0.0061   -3.0917 C.3       1 <0>        -0.1192
     21 C21         4.5564   -1.3488   -2.5679 C.3       1 <0>        -0.0916
     22 C22         5.1498    0.7503   -3.8628 C.3       1 <0>         0.1883
     23 C23         3.4544   -2.1251   -1.8653 C.3       1 <0>         0.1952
     24 N1          1.2318   -3.4255   -5.6050 N.pl3     1 <0>        -0.7670
     25 N2          3.8547   -1.2301    0.4039 N.am      1 <0>        -0.4509
     26 N3          8.5899    1.8298   -2.7310 N.pl3     1 <0>        -0.8477
     27 N4          7.5182    2.0100   -4.8696 N.pl3     1 <0>        -0.8633
     28 N5          6.3266    0.9918   -3.0404 N.pl3     1 <0>        -0.7419
     29 N6          2.2741   -2.2179   -2.7432 N.pl3     1 <0>        -0.8860
     30 O1          2.1401   -0.8907    3.6051 O.2       1 <0>        -0.5199
     31 O2          1.7818   -0.9917   -0.6208 O.2       1 <0>        -0.6131
     32 O3         -0.1165   -3.1121   -3.0880 O.2       1 <0>        -0.6576
     33 O4          1.2896   -4.0436   -1.2226 O.2       1 <0>        -0.6482
     34 O5          2.5235   -2.5830    2.1269 O.3       1 <0>        -0.6303
     35 S1          1.1775   -3.5081   -2.5659 S.o2      1 <0>         1.5193
     36 H1          3.4328   -7.7153   -3.4316 H         1 <0>         0.1426
     37 H2          3.3680   -7.4891   -5.8914 H         1 <0>         0.1398
     38 H3          2.4534   -5.9358   -1.9953 H         1 <0>         0.1599
     39 H4          3.3132   -5.1073   -7.6968 H         1 <0>         0.0574
     40 H5          2.1395   -6.4300   -7.8186 H         1 <0>         0.0629
     41 H6          5.1450   -2.9020    2.1525 H         1 <0>         0.0614
     42 H7          6.7810   -2.4531    1.7029 H         1 <0>         0.0593
     43 H8          5.0903    0.8874    1.6785 H         1 <0>         0.0841
     44 H9          4.2733    0.6894    3.2215 H         1 <0>         0.0679
     45 H10         5.8537   -0.9171   -0.0665 H         1 <0>         0.0826
     46 H11         5.3167   -2.5850   -0.2811 H         1 <0>         0.0383
     47 H12         2.3133   -2.6740   -7.2264 H         1 <0>         0.0556
     48 H13         0.5637   -2.4650   -7.3281 H         1 <0>         0.0415
     49 H14         2.7622    0.3365    1.2577 H         1 <0>         0.0851
     50 H15         0.2527   -4.9144   -7.6261 H         1 <0>         0.0639
     51 H16         5.3768   -1.3130    3.7317 H         1 <0>         0.0584
     52 H17         0.4364   -3.7110   -9.6904 H         1 <0>         0.0401
     53 H18         2.1981   -3.5608   -9.5417 H         1 <0>         0.0440
     54 H19         1.4672   -5.1439   -9.8699 H         1 <0>         0.0459
     55 H20         7.5288   -0.6354    3.8367 H         1 <0>         0.0456
     56 H21         7.6683   -0.4045    2.0831 H         1 <0>         0.0366
     57 H22         6.9087    0.8473    3.0852 H         1 <0>         0.0474
     58 H23         3.1961   -0.1462   -3.7411 H         1 <0>         0.0800
     59 H24         3.7428    0.6319   -2.2522 H         1 <0>         0.0681
     60 H25         5.4094   -1.1917   -1.8946 H         1 <0>         0.0740
     61 H26         4.9285   -1.9502   -3.4070 H         1 <0>         0.0631
     62 H27         4.7831    1.7144   -4.2291 H         1 <0>         0.0970
     63 H28         5.4669    0.1582   -4.7272 H         1 <0>         0.0725
     64 H29         3.7703   -3.1244   -1.5692 H         1 <0>         0.0839
     65 H30         0.9344   -2.6826   -4.9846 H         1 <0>         0.4531
     66 H31         8.6061    1.5552   -1.7524 H         1 <0>         0.4798
     67 H32         9.4239    2.2796   -3.1013 H         1 <0>         0.4881
     68 H33         6.7239    1.8637   -5.4879 H         1 <0>         0.4801
     69 H34         8.3428    2.4597   -5.2600 H         1 <0>         0.4806
     70 H35         6.3281    0.7083   -2.0595 H         1 <0>         0.4689
     71 H36         1.9407   -1.3323   -3.1385 H         1 <0>         0.4505
     72 H37         2.0077   -3.1411    2.7472 H         1 <0>         0.4443
@<TRIPOS>BOND
     1    1    2 ar
     2    1    3 ar
     3    2    4 ar
     4    3    6 ar
     5    4    5 ar
     6    4   10 1
     7    5    6 ar
     8    5   24 1
     9    6   35 1
    10    7   15 1
    11    7   30 2
    12    7   34 1
    13    8   23 1
    14    8   25 am
    15    8   31 2
    16    9   26 1
    17    9   27 1
    18    9   28 1
    19   10   16 1
    20   11   13 1
    21   11   17 1
    22   12   15 1
    23   12   17 1
    24   13   25 1
    25   14   16 1
    26   14   24 1
    27   15   25 1
    28   16   18 1
    29   17   19 1
    30   20   21 1
    31   20   22 1
    32   21   23 1
    33   22   28 1
    34   23   29 1
    35   29   35 1
    36   32   35 2
    37   33   35 2
    38    1   36 1
    39    2   37 1
    40    3   38 1
    41   10   39 1
    42   10   40 1
    43   11   41 1
    44   11   42 1
    45   12   43 1
    46   12   44 1
    47   13   45 1
    48   13   46 1
    49   14   47 1
    50   14   48 1
    51   15   49 1
    52   16   50 1
    53   17   51 1
    54   18   52 1
    55   18   53 1
    56   18   54 1
    57   19   55 1
    58   19   56 1
    59   19   57 1
    60   20   58 1
    61   20   59 1
    62   21   60 1
    63   21   61 1
    64   22   62 1
    65   22   63 1
    66   23   64 1
    67   24   65 1
    68   26   66 1
    69   26   67 1
    70   27   68 1
    71   27   69 1
    72   28   70 1
    73   29   71 1
    74   34   72 1
@<TRIPOS>MOLECULE
1dwc_ligand_239
   72    74     0     0     0
SMALL
USER_CHARGES

mmff94s_NoEstat = 80.14
@<TRIPOS>ATOM
      1 C1          6.5406    1.4245   -2.2182 C.ar      1 <0>        -0.1945
      2 C2          6.6985    1.8302   -0.8947 C.ar      1 <0>        -0.0294
      3 C3          6.3835    0.0742   -2.5155 C.ar      1 <0>        -0.0143
      4 C4          6.7040    0.8848    0.1410 C.ar      1 <0>        -0.1552
      5 C5          6.5167   -0.4809   -0.1490 C.ar      1 <0>         0.3076
      6 C6          6.3751   -0.8712   -1.4886 C.ar      1 <0>        -0.4908
      7 C7          1.7669    0.8662    1.3280 C.2       1 <0>         0.5994
      8 C8          2.9466   -1.3973   -0.6457 C.2       1 <0>         0.6462
      9 C9          2.8470   -3.8447   -7.0081 C.cat     1 <0>         0.6305
     10 C10         6.8681    1.3449    1.5697 C.3       1 <0>        -0.0319
     11 C11         2.6473    2.2406   -1.5596 C.3       1 <0>        -0.0918
     12 C12         0.4142    1.3633   -0.6780 C.3       1 <0>        -0.0841
     13 C13         2.8059    0.7734   -1.9437 C.3       1 <0>         0.0870
     14 C14         6.4788   -1.0425    2.2496 C.3       1 <0>         0.2023
     15 C15         1.2880    0.3092   -0.0025 C.3       1 <0>         0.0778
     16 C16         7.3211    0.2120    2.5051 C.3       1 <0>        -0.0746
     17 C17         1.2097    2.5950   -1.1463 C.3       1 <0>        -0.0681
     18 C18         8.8220   -0.0713    2.3751 C.3       1 <0>        -0.0944
     19 C19         0.4640    3.3062   -2.2768 C.3       1 <0>        -0.0918
     20 C20         2.8965   -3.7759   -3.7050 C.3       1 <0>        -0.1192
     21 C21         2.4114   -3.0756   -2.4306 C.3       1 <0>        -0.0916
     22 C22         3.3037   -2.7834   -4.7871 C.3       1 <0>         0.1883
     23 C23         3.4544   -2.1251   -1.8653 C.3       1 <0>         0.1952
     24 N1          6.5251   -1.4407    0.8554 N.pl3     1 <0>        -0.7670
     25 N2          2.3949   -0.1309   -0.8598 N.am      1 <0>        -0.4509
     26 N3          3.2886   -4.4872   -8.1601 N.pl3     1 <0>        -0.8477
     27 N4          1.4899   -3.5815   -6.8567 N.pl3     1 <0>        -0.8633
     28 N5          3.7384   -3.4589   -6.0012 N.pl3     1 <0>        -0.7419
     29 N6          4.6097   -2.8934   -1.3678 N.pl3     1 <0>        -0.8860
     30 O1          1.0388    1.2682    2.2234 O.2       1 <0>        -0.5199
     31 O2          3.0377   -1.9312    0.4627 O.2       1 <0>        -0.6131
     32 O3          6.1698   -2.6265   -3.3996 O.2       1 <0>        -0.6576
     33 O4          7.1388   -3.3235   -1.1861 O.2       1 <0>        -0.6482
     34 O5          3.1209    0.8607    1.3898 O.3       1 <0>        -0.6303
     35 S1          6.1736   -2.5573   -1.9508 S.o2      1 <0>         1.5193
     36 H1          6.5435    2.1609   -3.0173 H         1 <0>         0.1426
     37 H2          6.8235    2.8872   -0.6719 H         1 <0>         0.1398
     38 H3          6.2656   -0.2543   -3.5434 H         1 <0>         0.1599
     39 H4          7.5861    2.1725    1.6211 H         1 <0>         0.0574
     40 H5          5.8975    1.7275    1.9104 H         1 <0>         0.0629
     41 H6          3.3139    2.4482   -0.7119 H         1 <0>         0.0614
     42 H7          2.9866    2.8831   -2.3805 H         1 <0>         0.0593
     43 H8         -0.0763    0.8986   -1.5445 H         1 <0>         0.0841
     44 H9         -0.3910    1.6884   -0.0067 H         1 <0>         0.0679
     45 H10         2.1887    0.5331   -2.8174 H         1 <0>         0.0826
     46 H11         3.8474    0.5746   -2.2145 H         1 <0>         0.0383
     47 H12         6.8300   -1.8717    2.8739 H         1 <0>         0.0556
     48 H13         5.4356   -0.8502    2.5290 H         1 <0>         0.0415
     49 H14         0.6719   -0.5636    0.2451 H         1 <0>         0.0851
     50 H15         7.1566    0.5367    3.5400 H         1 <0>         0.0639
     51 H16         1.2711    3.3100   -0.3159 H         1 <0>         0.0584
     52 H17         9.2504    0.4995    1.5459 H         1 <0>         0.0401
     53 H18         9.3470    0.2082    3.2934 H         1 <0>         0.0440
     54 H19         8.9975   -1.1349    2.1879 H         1 <0>         0.0459
     55 H20         0.7912    4.3471   -2.3578 H         1 <0>         0.0456
     56 H21         0.6528    2.8103   -3.2336 H         1 <0>         0.0366
     57 H22        -0.6142    3.2977   -2.0910 H         1 <0>         0.0474
     58 H23         3.7485   -4.4232   -3.4647 H         1 <0>         0.0800
     59 H24         2.1002   -4.4168   -4.1006 H         1 <0>         0.0681
     60 H25         2.1309   -3.8309   -1.6847 H         1 <0>         0.0740
     61 H26         1.5011   -2.5046   -2.6534 H         1 <0>         0.0631
     62 H27         4.1172   -2.1361   -4.4443 H         1 <0>         0.0970
     63 H28         2.4527   -2.1471   -5.0499 H         1 <0>         0.0725
     64 H29         3.7902   -1.3903   -2.5956 H         1 <0>         0.0839
     65 H30         6.3115   -2.3985    0.6051 H         1 <0>         0.4531
     66 H31         4.2709   -4.6983   -8.3149 H         1 <0>         0.4798
     67 H32         2.6337   -4.7638   -8.8878 H         1 <0>         0.4881
     68 H33         1.1330   -3.1134   -6.0272 H         1 <0>         0.4801
     69 H34         0.8182   -3.8513   -7.5713 H         1 <0>         0.4806
     70 H35         4.7285   -3.6658   -6.1411 H         1 <0>         0.4689
     71 H36         4.5044   -3.3037   -0.4338 H         1 <0>         0.4505
     72 H37         3.4503    1.2188    2.2416 H         1 <0>         0.4443
@<TRIPOS>BOND
     1    1    2 ar
     2    1    3 ar
     3    2    4 ar
     4    3    6 ar
     5    4    5 ar
     6    4   10 1
     7    5    6 ar
     8    5   24 1
     9    6   35 1
    10    7   15 1
    11    7   30 2
    12    7   34 1
    13    8   23 1
    14    8   25 am
    15    8   31 2
    16    9   26 1
    17    9   27 1
    18    9   28 1
    19   10   16 1
    20   11   13 1
    21   11   17 1
    22   12   15 1
    23   12   17 1
    24   13   25 1
    25   14   16 1
    26   14   24 1
    27   15   25 1
    28   16   18 1
    29   17   19 1
    30   20   21 1
    31   20   22 1
    32   21   23 1
    33   22   28 1
    34   23   29 1
    35   29   35 1
    36   32   35 2
    37   33   35 2
    38    1   36 1
    39    2   37 1
    40    3   38 1
    41   10   39 1
    42   10   40 1
    43   11   41 1
    44   11   42 1
    45   12   43 1
    46   12   44 1
    47   13   45 1
    48   13   46 1
    49   14   47 1
    50   14   48 1
    51   15   49 1
    52   16   50 1
    53   17   51 1
    54   18   52 1
    55   18   53 1
    56   18   54 1
    57   19   55 1
    58   19   56 1
    59   19   57 1
    60   20   58 1
    61   20   59 1
    62   21   60 1
    63   21   61 1
    64   22   62 1
    65   22   63 1
    66   23   64 1
    67   24   65 1
    68   26   66 1
    69   26   67 1
    70   27   68 1
    71   27   69 1
    72   28   70 1
    73   29   71 1
    74   34   72 1
@<TRIPOS>MOLECULE
1dwc_ligand_240
   72    74     0     0     0
SMALL
USER_CHARGES

mmff94s_NoEstat = 80.19
@<TRIPOS>ATOM
      1 C1         -3.2095   -6.3111    4.0319 C.ar      1 <0>        -0.1945
      2 C2         -4.3494   -6.3756    3.2333 C.ar      1 <0>        -0.0294
      3 C3         -2.6618   -5.0747    4.3608 C.ar      1 <0>        -0.0143
      4 C4         -4.9515   -5.2005    2.7615 C.ar      1 <0>        -0.1552
      5 C5         -4.3866   -3.9460    3.0659 C.ar      1 <0>         0.3076
      6 C6         -3.2482   -3.9013    3.8837 C.ar      1 <0>        -0.4908
      7 C7          2.9525   -3.7210    4.6633 C.2       1 <0>         0.5994
      8 C8          0.8654   -1.4427    3.2413 C.2       1 <0>         0.6462
      9 C9         -0.8941   -7.9715   -0.0876 C.cat     1 <0>         0.6305
     10 C10        -6.1822   -5.2895    1.8910 C.3       1 <0>        -0.0319
     11 C11         3.8997   -0.0663    4.7953 C.3       1 <0>        -0.0918
     12 C12         3.0155   -1.8674    6.2922 C.3       1 <0>        -0.0841
     13 C13         3.1900   -0.7124    3.6122 C.3       1 <0>         0.0870
     14 C14        -6.0218   -2.8018    1.6233 C.3       1 <0>         0.2023
     15 C15         2.2314   -2.4635    5.1202 C.3       1 <0>         0.0778
     16 C16        -6.9723   -3.9714    1.8997 C.3       1 <0>        -0.0746
     17 C17         4.2756   -1.1130    5.8473 C.3       1 <0>        -0.0681
     18 C18        -8.1050   -4.0102    0.8775 C.3       1 <0>        -0.0944
     19 C19         4.9663   -0.4582    7.0420 C.3       1 <0>        -0.0918
     20 C20        -0.5404   -4.8511    2.0458 C.3       1 <0>        -0.1192
     21 C21         0.3004   -3.5693    2.0376 C.3       1 <0>        -0.0916
     22 C22        -0.1768   -5.7847    0.8978 C.3       1 <0>         0.1883
     23 C23        -0.0078   -2.6730    3.2260 C.3       1 <0>         0.1952
     24 N1         -4.9617   -2.7650    2.6130 N.pl3     1 <0>        -0.7670
     25 N2          2.0252   -1.5038    4.0223 N.am      1 <0>        -0.4509
     26 N3         -1.6898   -9.1122   -0.0609 N.pl3     1 <0>        -0.8477
     27 N4          0.0239   -7.8094   -1.1196 N.pl3     1 <0>        -0.8633
     28 N5         -0.9984   -6.9865    0.9003 N.pl3     1 <0>        -0.7419
     29 N6         -1.3760   -2.1385    3.1042 N.pl3     1 <0>        -0.8860
     30 O1          3.7741   -3.7699    3.7601 O.2       1 <0>        -0.5199
     31 O2          0.5240   -0.4555    2.5844 O.2       1 <0>        -0.6131
     32 O3         -3.5166   -1.3454    4.2968 O.2       1 <0>        -0.6576
     33 O4         -1.7865   -2.6277    5.5955 O.2       1 <0>        -0.6482
     34 O5          2.5581   -4.7916    5.3952 O.3       1 <0>        -0.6303
     35 S1         -2.5018   -2.3799    4.3583 S.o2      1 <0>         1.5193
     36 H1         -2.7511   -7.2247    4.4003 H         1 <0>         0.1426
     37 H2         -4.7722   -7.3459    2.9838 H         1 <0>         0.1398
     38 H3         -1.7777   -5.0119    4.9872 H         1 <0>         0.1599
     39 H4         -5.8649   -5.5367    0.8700 H         1 <0>         0.0574
     40 H5         -6.8323   -6.0992    2.2447 H         1 <0>         0.0629
     41 H6          4.7987    0.4538    4.4437 H         1 <0>         0.0614
     42 H7          3.2442    0.6909    5.2441 H         1 <0>         0.0593
     43 H8          2.3586   -1.1679    6.8273 H         1 <0>         0.0841
     44 H9          3.2888   -2.6509    7.0104 H         1 <0>         0.0679
     45 H10         2.8945    0.0639    2.8988 H         1 <0>         0.0826
     46 H11         3.8704   -1.3909    3.0835 H         1 <0>         0.0383
     47 H12        -5.5819   -2.8910    0.6223 H         1 <0>         0.0556
     48 H13        -6.5698   -1.8534    1.6532 H         1 <0>         0.0415
     49 H14         1.2607   -2.8048    5.4936 H         1 <0>         0.0851
     50 H15        -7.4189   -3.8345    2.8938 H         1 <0>         0.0639
     51 H16         4.9839   -1.8245    5.4052 H         1 <0>         0.0584
     52 H17        -8.8065   -3.1885    1.0498 H         1 <0>         0.0401
     53 H18        -7.7094   -3.9182   -0.1385 H         1 <0>         0.0440
     54 H19        -8.6550   -4.9533    0.9490 H         1 <0>         0.0459
     55 H20         4.4464   -0.7091    7.9715 H         1 <0>         0.0456
     56 H21         6.0020   -0.8015    7.1231 H         1 <0>         0.0366
     57 H22         4.9717    0.6305    6.9335 H         1 <0>         0.0474
     58 H23        -0.4002   -5.3741    2.9994 H         1 <0>         0.0800
     59 H24        -1.6035   -4.5964    1.9658 H         1 <0>         0.0681
     60 H25         0.1357   -3.0322    1.0943 H         1 <0>         0.0740
     61 H26         1.3654   -3.8328    2.0643 H         1 <0>         0.0631
     62 H27         0.8739   -6.0869    0.9513 H         1 <0>         0.0970
     63 H28        -0.3350   -5.2785   -0.0598 H         1 <0>         0.0725
     64 H29         0.1003   -3.1895    4.1787 H         1 <0>         0.0839
     65 H30        -4.4783   -1.8939    2.7937 H         1 <0>         0.4531
     66 H31        -2.3726   -9.2741    0.6745 H         1 <0>         0.4798
     67 H32        -1.6070   -9.8240   -0.7830 H         1 <0>         0.4881
     68 H33         0.6213   -6.9877   -1.1696 H         1 <0>         0.4801
     69 H34         0.1212   -8.5082   -1.8524 H         1 <0>         0.4806
     70 H35        -1.6814   -7.1337    1.6450 H         1 <0>         0.4689
     71 H36        -1.4850   -1.3266    2.4871 H         1 <0>         0.4505
     72 H37         3.0115   -5.6147    5.1139 H         1 <0>         0.4443
@<TRIPOS>BOND
     1    1    2 ar
     2    1    3 ar
     3    2    4 ar
     4    3    6 ar
     5    4    5 ar
     6    4   10 1
     7    5    6 ar
     8    5   24 1
     9    6   35 1
    10    7   15 1
    11    7   30 2
    12    7   34 1
    13    8   23 1
    14    8   25 am
    15    8   31 2
    16    9   26 1
    17    9   27 1
    18    9   28 1
    19   10   16 1
    20   11   13 1
    21   11   17 1
    22   12   15 1
    23   12   17 1
    24   13   25 1
    25   14   16 1
    26   14   24 1
    27   15   25 1
    28   16   18 1
    29   17   19 1
    30   20   21 1
    31   20   22 1
    32   21   23 1
    33   22   28 1
    34   23   29 1
    35   29   35 1
    36   32   35 2
    37   33   35 2
    38    1   36 1
    39    2   37 1
    40    3   38 1
    41   10   39 1
    42   10   40 1
    43   11   41 1
    44   11   42 1
    45   12   43 1
    46   12   44 1
    47   13   45 1
    48   13   46 1
    49   14   47 1
    50   14   48 1
    51   15   49 1
    52   16   50 1
    53   17   51 1
    54   18   52 1
    55   18   53 1
    56   18   54 1
    57   19   55 1
    58   19   56 1
    59   19   57 1
    60   20   58 1
    61   20   59 1
    62   21   60 1
    63   21   61 1
    64   22   62 1
    65   22   63 1
    66   23   64 1
    67   24   65 1
    68   26   66 1
    69   26   67 1
    70   27   68 1
    71   27   69 1
    72   28   70 1
    73   29   71 1
    74   34   72 1
@<TRIPOS>MOLECULE
1dwc_ligand_241
   72    74     0     0     0
SMALL
USER_CHARGES

mmff94s_NoEstat = 80.20
@<TRIPOS>ATOM
      1 C1         -0.5523    1.6744    5.9041 C.ar      1 <0>        -0.1945
      2 C2         -0.9694    2.6552    5.0066 C.ar      1 <0>        -0.0294
      3 C3         -0.9569    0.3546    5.7269 C.ar      1 <0>        -0.0143
      4 C4         -1.7923    2.3195    3.9220 C.ar      1 <0>        -0.1552
      5 C5         -2.2299    0.9909    3.7521 C.ar      1 <0>         0.3076
      6 C6         -1.7869    0.0155    4.6571 C.ar      1 <0>        -0.4908
      7 C7          2.9525   -3.7210    4.6633 C.2       1 <0>         0.5994
      8 C8          0.8654   -1.4427    3.2413 C.2       1 <0>         0.6462
      9 C9          0.2237   -3.7376   -2.9912 C.cat     1 <0>         0.6305
     10 C10        -2.2407    3.3967    2.9635 C.3       1 <0>        -0.0319
     11 C11         3.8997   -0.0663    4.7953 C.3       1 <0>        -0.0918
     12 C12         3.0155   -1.8674    6.2922 C.3       1 <0>        -0.0841
     13 C13         3.1900   -0.7124    3.6122 C.3       1 <0>         0.0870
     14 C14        -3.6561    1.6489    1.8554 C.3       1 <0>         0.2023
     15 C15         2.2314   -2.4635    5.1202 C.3       1 <0>         0.0778
     16 C16        -2.6763    2.8021    1.6150 C.3       1 <0>        -0.0746
     17 C17         4.2756   -1.1130    5.8473 C.3       1 <0>        -0.0681
     18 C18        -3.2993    3.8738    0.7246 C.3       1 <0>        -0.0944
     19 C19         4.9663   -0.4582    7.0420 C.3       1 <0>        -0.0918
     20 C20         0.0249   -2.8727    0.7002 C.3       1 <0>        -0.1192
     21 C21         0.3004   -3.5693    2.0376 C.3       1 <0>        -0.0916
     22 C22         0.2602   -3.7963   -0.4886 C.3       1 <0>         0.1883
     23 C23        -0.0078   -2.6730    3.2260 C.3       1 <0>         0.1952
     24 N1         -3.0449    0.6290    2.6865 N.pl3     1 <0>        -0.7670
     25 N2          2.0252   -1.5038    4.0223 N.am      1 <0>        -0.4509
     26 N3         -0.0152   -3.0669   -4.1862 N.pl3     1 <0>        -0.8477
     27 N4          0.6744   -5.0526   -3.0302 N.pl3     1 <0>        -0.8633
     28 N5          0.0202   -3.1173   -1.7538 N.pl3     1 <0>        -0.7419
     29 N6         -1.3760   -2.1385    3.1042 N.pl3     1 <0>        -0.8860
     30 O1          3.3424   -3.9319    3.5245 O.2       1 <0>        -0.5199
     31 O2          0.5240   -0.4555    2.5844 O.2       1 <0>        -0.6131
     32 O3         -1.7140   -2.3916    5.6449 O.2       1 <0>        -0.6576
     33 O4         -3.6601   -1.7094    4.2056 O.2       1 <0>        -0.6482
     34 O5          3.1050   -4.5869    5.6949 O.3       1 <0>        -0.6303
     35 S1         -2.2397   -1.6774    4.4970 S.o2      1 <0>         1.5193
     36 H1          0.0908    1.9391    6.7389 H         1 <0>         0.1426
     37 H2         -0.6459    3.6833    5.1512 H         1 <0>         0.1398
     38 H3         -0.6333   -0.4189    6.4161 H         1 <0>         0.1599
     39 H4         -3.0724    3.9441    3.4249 H         1 <0>         0.0574
     40 H5         -1.4243    4.1094    2.7937 H         1 <0>         0.0629
     41 H6          4.7987    0.4538    4.4437 H         1 <0>         0.0614
     42 H7          3.2442    0.6909    5.2441 H         1 <0>         0.0593
     43 H8          2.3586   -1.1679    6.8273 H         1 <0>         0.0841
     44 H9          3.2888   -2.6509    7.0104 H         1 <0>         0.0679
     45 H10         2.8945    0.0639    2.8988 H         1 <0>         0.0826
     46 H11         3.8704   -1.3909    3.0835 H         1 <0>         0.0383
     47 H12        -4.5696    2.0142    2.3409 H         1 <0>         0.0556
     48 H13        -3.9536    1.1996    0.9014 H         1 <0>         0.0415
     49 H14         1.2607   -2.8048    5.4936 H         1 <0>         0.0851
     50 H15        -1.7894    2.4087    1.1001 H         1 <0>         0.0639
     51 H16         4.9839   -1.8245    5.4052 H         1 <0>         0.0584
     52 H17        -3.3831    3.5161   -0.3060 H         1 <0>         0.0401
     53 H18        -4.3001    4.1356    1.0809 H         1 <0>         0.0440
     54 H19        -2.6852    4.7793    0.7260 H         1 <0>         0.0459
     55 H20         4.4464   -0.7091    7.9715 H         1 <0>         0.0456
     56 H21         6.0020   -0.8015    7.1231 H         1 <0>         0.0366
     57 H22         4.9717    0.6305    6.9335 H         1 <0>         0.0474
     58 H23        -1.0105   -2.5120    0.6824 H         1 <0>         0.0800
     59 H24         0.6776   -1.9980    0.5976 H         1 <0>         0.0681
     60 H25         1.3460   -3.9033    2.0652 H         1 <0>         0.0740
     61 H26        -0.3175   -4.4733    2.1109 H         1 <0>         0.0631
     62 H27        -0.3909   -4.6751   -0.4416 H         1 <0>         0.0970
     63 H28         1.2981   -4.1440   -0.4920 H         1 <0>         0.0725
     64 H29         0.1003   -3.1895    4.1787 H         1 <0>         0.0839
     65 H30        -3.3945   -0.3205    2.6487 H         1 <0>         0.4531
     66 H31        -0.3470   -2.1063   -4.2064 H         1 <0>         0.4798
     67 H32         0.1347   -3.5257   -5.0818 H         1 <0>         0.4881
     68 H33         0.8589   -5.5723   -2.1756 H         1 <0>         0.4801
     69 H34         0.8324   -5.5290   -3.9149 H         1 <0>         0.4806
     70 H35        -0.3110   -2.1514   -1.7574 H         1 <0>         0.4689
     71 H36        -1.6042   -1.6955    2.2078 H         1 <0>         0.4505
     72 H37         3.5674   -5.4070    5.4195 H         1 <0>         0.4443
@<TRIPOS>BOND
     1    1    2 ar
     2    1    3 ar
     3    2    4 ar
     4    3    6 ar
     5    4    5 ar
     6    4   10 1
     7    5    6 ar
     8    5   24 1
     9    6   35 1
    10    7   15 1
    11    7   30 2
    12    7   34 1
    13    8   23 1
    14    8   25 am
    15    8   31 2
    16    9   26 1
    17    9   27 1
    18    9   28 1
    19   10   16 1
    20   11   13 1
    21   11   17 1
    22   12   15 1
    23   12   17 1
    24   13   25 1
    25   14   16 1
    26   14   24 1
    27   15   25 1
    28   16   18 1
    29   17   19 1
    30   20   21 1
    31   20   22 1
    32   21   23 1
    33   22   28 1
    34   23   29 1
    35   29   35 1
    36   32   35 2
    37   33   35 2
    38    1   36 1
    39    2   37 1
    40    3   38 1
    41   10   39 1
    42   10   40 1
    43   11   41 1
    44   11   42 1
    45   12   43 1
    46   12   44 1
    47   13   45 1
    48   13   46 1
    49   14   47 1
    50   14   48 1
    51   15   49 1
    52   16   50 1
    53   17   51 1
    54   18   52 1
    55   18   53 1
    56   18   54 1
    57   19   55 1
    58   19   56 1
    59   19   57 1
    60   20   58 1
    61   20   59 1
    62   21   60 1
    63   21   61 1
    64   22   62 1
    65   22   63 1
    66   23   64 1
    67   24   65 1
    68   26   66 1
    69   26   67 1
    70   27   68 1
    71   27   69 1
    72   28   70 1
    73   29   71 1
    74   34   72 1
@<TRIPOS>MOLECULE
1dwc_ligand_242
   72    74     0     0     0
SMALL
USER_CHARGES

mmff94s_NoEstat = 80.22
@<TRIPOS>ATOM
      1 C1          0.2729   -5.6236   -0.4407 C.ar      1 <0>        -0.1945
      2 C2         -0.6484   -6.6112   -0.0987 C.ar      1 <0>        -0.0294
      3 C3          1.0504   -5.0282    0.5480 C.ar      1 <0>        -0.0143
      4 C4         -0.8004   -7.0071    1.2380 C.ar      1 <0>        -0.1552
      5 C5          0.0031   -6.4297    2.2408 C.ar      1 <0>         0.3076
      6 C6          0.9136   -5.4263    1.8789 C.ar      1 <0>        -0.4908
      7 C7         -0.2549    0.4306    0.6330 C.2       1 <0>         0.5994
      8 C8          0.8654   -1.4427    3.2413 C.2       1 <0>         0.6462
      9 C9         -5.4636   -2.1736    4.9361 C.cat     1 <0>         0.6305
     10 C10        -1.7983   -8.0848    1.5877 C.3       1 <0>        -0.0319
     11 C11         3.3665   -0.6443    0.6676 C.3       1 <0>        -0.0918
     12 C12         1.2181   -1.2005   -0.4907 C.3       1 <0>        -0.0841
     13 C13         2.5847   -0.2704    1.9206 C.3       1 <0>         0.0870
     14 C14        -0.9225   -7.9557    3.9392 C.3       1 <0>         0.2023
     15 C15         0.4427   -0.9096    0.7969 C.3       1 <0>         0.0778
     16 C16        -2.1834   -8.0707    3.0760 C.3       1 <0>        -0.0746
     17 C17         2.5288   -0.4088   -0.5919 C.3       1 <0>        -0.0681
     18 C18        -3.1963   -6.9649    3.3941 C.3       1 <0>        -0.0944
     19 C19         3.3078   -0.8065   -1.8442 C.3       1 <0>        -0.0918
     20 C20        -2.1115   -1.2711    3.3990 C.3       1 <0>        -0.1192
     21 C21        -1.3133   -2.4479    3.9716 C.3       1 <0>        -0.0916
     22 C22        -3.3821   -0.9970    4.1941 C.3       1 <0>         0.1883
     23 C23        -0.0078   -2.6730    3.2260 C.3       1 <0>         0.1952
     24 N1         -0.1305   -6.7964    3.5741 N.pl3     1 <0>        -0.7670
     25 N2          1.2915   -0.9578    1.9994 N.am      1 <0>        -0.4509
     26 N3         -6.2866   -3.2950    4.9445 N.pl3     1 <0>        -0.8477
     27 N4         -5.8471   -1.0460    5.6540 N.pl3     1 <0>        -0.8633
     28 N5         -4.2608   -2.1574    4.2218 N.pl3     1 <0>        -0.7419
     29 N6          0.7961   -3.6905    3.9267 N.pl3     1 <0>        -0.8860
     30 O1         -0.5780    0.9276   -0.4357 O.2       1 <0>        -0.5199
     31 O2          1.1650   -0.9321    4.3240 O.2       1 <0>        -0.6131
     32 O3          2.4834   -5.6363    3.9445 O.2       1 <0>        -0.6576
     33 O4          2.8151   -3.7334    2.3342 O.2       1 <0>        -0.6482
     34 O5         -0.4710    1.0086    1.8398 O.3       1 <0>        -0.6303
     35 S1          1.9328   -4.6215    3.0666 S.o2      1 <0>         1.5193
     36 H1          0.3819   -5.3163   -1.4773 H         1 <0>         0.1426
     37 H2         -1.2538   -7.0689   -0.8775 H         1 <0>         0.1398
     38 H3          1.7672   -4.2535    0.2943 H         1 <0>         0.1599
     39 H4         -2.7011   -7.9788    0.9739 H         1 <0>         0.0574
     40 H5         -1.3433   -9.0529    1.3421 H         1 <0>         0.0629
     41 H6          4.2893   -0.0541    0.6219 H         1 <0>         0.0614
     42 H7          3.6617   -1.6999    0.7239 H         1 <0>         0.0593
     43 H8          1.4535   -2.2733   -0.5175 H         1 <0>         0.0841
     44 H9          0.5944   -0.9953   -1.3701 H         1 <0>         0.0679
     45 H10         3.1909   -0.4908    2.8053 H         1 <0>         0.0826
     46 H11         2.3782    0.8066    1.9340 H         1 <0>         0.0383
     47 H12        -1.1905   -7.8906    4.9997 H         1 <0>         0.0556
     48 H13        -0.3087   -8.8568    3.8183 H         1 <0>         0.0415
     49 H14        -0.3616   -1.6465    0.8882 H         1 <0>         0.0851
     50 H15        -2.6797   -9.0207    3.3097 H         1 <0>         0.0639
     51 H16         2.2982    0.6607   -0.6719 H         1 <0>         0.0584
     52 H17        -3.3457   -6.3186    2.5240 H         1 <0>         0.0401
     53 H18        -4.1623   -7.3968    3.6724 H         1 <0>         0.0440
     54 H19        -2.8427   -6.3474    4.2251 H         1 <0>         0.0459
     55 H20         2.6382   -1.2449   -2.5902 H         1 <0>         0.0456
     56 H21         3.7937    0.0674   -2.2885 H         1 <0>         0.0366
     57 H22         4.0794   -1.5424   -1.5992 H         1 <0>         0.0474
     58 H23        -1.4838   -0.3719    3.3933 H         1 <0>         0.0800
     59 H24        -2.3885   -1.4831    2.3599 H         1 <0>         0.0681
     60 H25        -1.9335   -3.3536    3.9489 H         1 <0>         0.0740
     61 H26        -1.0849   -2.2531    5.0271 H         1 <0>         0.0631
     62 H27        -3.9391   -0.1546    3.7717 H         1 <0>         0.0970
     63 H28        -3.1287   -0.7498    5.2299 H         1 <0>         0.0725
     64 H29        -0.1638   -2.9774    2.1921 H         1 <0>         0.0839
     65 H30         0.5206   -6.4083    4.2456 H         1 <0>         0.4531
     66 H31        -6.0482   -4.1406    4.4331 H         1 <0>         0.4798
     67 H32        -7.1601   -3.2982    5.4661 H         1 <0>         0.4881
     68 H33        -5.2692   -0.2091    5.6694 H         1 <0>         0.4801
     69 H34        -6.7154   -1.0290    6.1836 H         1 <0>         0.4806
     70 H35        -4.0063   -3.0002    3.7045 H         1 <0>         0.4689
     71 H36         0.9382   -3.5340    4.9302 H         1 <0>         0.4505
     72 H37        -0.9194    1.8770    1.7552 H         1 <0>         0.4443
@<TRIPOS>BOND
     1    1    2 ar
     2    1    3 ar
     3    2    4 ar
     4    3    6 ar
     5    4    5 ar
     6    4   10 1
     7    5    6 ar
     8    5   24 1
     9    6   35 1
    10    7   15 1
    11    7   30 2
    12    7   34 1
    13    8   23 1
    14    8   25 am
    15    8   31 2
    16    9   26 1
    17    9   27 1
    18    9   28 1
    19   10   16 1
    20   11   13 1
    21   11   17 1
    22   12   15 1
    23   12   17 1
    24   13   25 1
    25   14   16 1
    26   14   24 1
    27   15   25 1
    28   16   18 1
    29   17   19 1
    30   20   21 1
    31   20   22 1
    32   21   23 1
    33   22   28 1
    34   23   29 1
    35   29   35 1
    36   32   35 2
    37   33   35 2
    38    1   36 1
    39    2   37 1
    40    3   38 1
    41   10   39 1
    42   10   40 1
    43   11   41 1
    44   11   42 1
    45   12   43 1
    46   12   44 1
    47   13   45 1
    48   13   46 1
    49   14   47 1
    50   14   48 1
    51   15   49 1
    52   16   50 1
    53   17   51 1
    54   18   52 1
    55   18   53 1
    56   18   54 1
    57   19   55 1
    58   19   56 1
    59   19   57 1
    60   20   58 1
    61   20   59 1
    62   21   60 1
    63   21   61 1
    64   22   62 1
    65   22   63 1
    66   23   64 1
    67   24   65 1
    68   26   66 1
    69   26   67 1
    70   27   68 1
    71   27   69 1
    72   28   70 1
    73   29   71 1
    74   34   72 1
@<TRIPOS>MOLECULE
1dwc_ligand_243
   72    74     0     0     0
SMALL
USER_CHARGES

mmff94s_NoEstat = 80.23
@<TRIPOS>ATOM
      1 C1         -3.5298   -6.2535    4.3510 C.ar      1 <0>        -0.1945
      2 C2         -4.3901   -6.3642    3.2606 C.ar      1 <0>        -0.0294
      3 C3         -2.9628   -5.0220    4.6653 C.ar      1 <0>        -0.0143
      4 C4         -4.6918   -5.2398    2.4790 C.ar      1 <0>        -0.1552
      5 C5         -4.0992   -3.9956    2.7730 C.ar      1 <0>         0.3076
      6 C6         -3.2482   -3.9013    3.8837 C.ar      1 <0>        -0.4908
      7 C7          2.7704   -1.7839    6.0383 C.2       1 <0>         0.5994
      8 C8          0.8654   -1.4427    3.2413 C.2       1 <0>         0.6462
      9 C9          1.7699   -7.1193    0.0630 C.cat     1 <0>         0.6305
     10 C10        -5.6204   -5.3796    1.2965 C.3       1 <0>        -0.0319
     11 C11         0.5768    1.2733    5.7022 C.3       1 <0>        -0.0918
     12 C12         0.6567   -0.8944    6.9517 C.3       1 <0>        -0.0841
     13 C13         1.2923    0.6145    4.5297 C.3       1 <0>         0.0870
     14 C14        -5.1062   -2.9837    0.7664 C.3       1 <0>         0.2023
     15 C15         1.2950   -1.5759    5.7384 C.3       1 <0>         0.0778
     16 C16        -6.2232   -4.0248    0.8929 C.3       1 <0>        -0.0746
     17 C17         0.9641    0.6073    7.0251 C.3       1 <0>        -0.0681
     18 C18        -7.0091   -4.1462   -0.4097 C.3       1 <0>        -0.0944
     19 C19         0.2272    1.2555    8.1955 C.3       1 <0>        -0.0918
     20 C20        -0.5404   -4.8511    2.0458 C.3       1 <0>        -0.1192
     21 C21         0.3004   -3.5693    2.0376 C.3       1 <0>        -0.0916
     22 C22        -0.1768   -5.7847    0.8978 C.3       1 <0>         0.1883
     23 C23        -0.0078   -2.6730    3.2260 C.3       1 <0>         0.1952
     24 N1         -4.3801   -2.8644    2.0167 N.pl3     1 <0>        -0.7670
     25 N2          1.0754   -0.8353    4.4846 N.am      1 <0>        -0.4509
     26 N3          3.1011   -7.5120    0.1550 N.pl3     1 <0>        -0.8477
     27 N4          0.9786   -7.6393   -0.9556 N.pl3     1 <0>        -0.8633
     28 N5          1.2122   -6.2141    0.9723 N.pl3     1 <0>        -0.7419
     29 N6         -1.3760   -2.1385    3.1042 N.pl3     1 <0>        -0.8860
     30 O1          3.6669   -1.0191    5.7147 O.2       1 <0>        -0.5199
     31 O2          1.3411   -1.0305    2.1799 O.2       1 <0>        -0.6131
     32 O3         -3.5166   -1.3454    4.2968 O.2       1 <0>        -0.6576
     33 O4         -1.7865   -2.6277    5.5955 O.2       1 <0>        -0.6482
     34 O5          2.9625   -2.9419    6.7160 O.3       1 <0>        -0.6303
     35 S1         -2.5018   -2.3799    4.3583 S.o2      1 <0>         1.5193
     36 H1         -3.3049   -7.1268    4.9571 H         1 <0>         0.1426
     37 H2         -4.8309   -7.3297    3.0242 H         1 <0>         0.1398
     38 H3         -2.2961   -4.9225    5.5159 H         1 <0>         0.1599
     39 H4         -5.0522   -5.8078    0.4610 H         1 <0>         0.0574
     40 H5         -6.4331   -6.0751    1.5397 H         1 <0>         0.0629
     41 H6          0.8264    2.3406    5.7308 H         1 <0>         0.0614
     42 H7         -0.5083    1.2000    5.5545 H         1 <0>         0.0593
     43 H8         -0.4322   -1.0268    6.8892 H         1 <0>         0.0841
     44 H9          0.9781   -1.3826    7.8805 H         1 <0>         0.0679
     45 H10         0.9628    1.0810    3.5955 H         1 <0>         0.0826
     46 H11         2.3746    0.7760    4.6039 H         1 <0>         0.0383
     47 H12        -4.4091   -3.2616   -0.0338 H         1 <0>         0.0556
     48 H13        -5.5272   -2.0065    0.5046 H         1 <0>         0.0415
     49 H14         0.8726   -2.5816    5.6469 H         1 <0>         0.0851
     50 H15        -6.9191   -3.7005    1.6784 H         1 <0>         0.0639
     51 H16         2.0391    0.7469    7.1933 H         1 <0>         0.0584
     52 H17        -7.6317   -3.2604   -0.5670 H         1 <0>         0.0401
     53 H18        -6.3292   -4.2450   -1.2612 H         1 <0>         0.0440
     54 H19        -7.6604   -5.0250   -0.3851 H         1 <0>         0.0459
     55 H20        -0.3233    0.5026    8.7675 H         1 <0>         0.0456
     56 H21         0.9340    1.7505    8.8682 H         1 <0>         0.0366
     57 H22        -0.4858    2.0027    7.8342 H         1 <0>         0.0474
     58 H23        -0.4002   -5.3741    2.9994 H         1 <0>         0.0800
     59 H24        -1.6035   -4.5964    1.9658 H         1 <0>         0.0681
     60 H25         0.1357   -3.0322    1.0943 H         1 <0>         0.0740
     61 H26         1.3654   -3.8328    2.0643 H         1 <0>         0.0631
     62 H27        -0.3350   -5.3004   -0.0711 H         1 <0>         0.0970
     63 H28        -0.8024   -6.6822    0.9336 H         1 <0>         0.0725
     64 H29         0.1003   -3.1895    4.1787 H         1 <0>         0.0839
     65 H30        -3.8731   -2.0116    2.2195 H         1 <0>         0.4531
     66 H31         3.7173   -7.1568    0.8813 H         1 <0>         0.4798
     67 H32         3.4989   -8.1703   -0.5108 H         1 <0>         0.4881
     68 H33         0.0016   -7.3736   -1.0521 H         1 <0>         0.4801
     69 H34         1.3562   -8.3001   -1.6305 H         1 <0>         0.4806
     70 H35         1.8180   -5.8498    1.7091 H         1 <0>         0.4689
     71 H36        -1.4850   -1.3266    2.4871 H         1 <0>         0.4505
     72 H37         3.9102   -3.0955    6.9177 H         1 <0>         0.4443
@<TRIPOS>BOND
     1    1    2 ar
     2    1    3 ar
     3    2    4 ar
     4    3    6 ar
     5    4    5 ar
     6    4   10 1
     7    5    6 ar
     8    5   24 1
     9    6   35 1
    10    7   15 1
    11    7   30 2
    12    7   34 1
    13    8   23 1
    14    8   25 am
    15    8   31 2
    16    9   26 1
    17    9   27 1
    18    9   28 1
    19   10   16 1
    20   11   13 1
    21   11   17 1
    22   12   15 1
    23   12   17 1
    24   13   25 1
    25   14   16 1
    26   14   24 1
    27   15   25 1
    28   16   18 1
    29   17   19 1
    30   20   21 1
    31   20   22 1
    32   21   23 1
    33   22   28 1
    34   23   29 1
    35   29   35 1
    36   32   35 2
    37   33   35 2
    38    1   36 1
    39    2   37 1
    40    3   38 1
    41   10   39 1
    42   10   40 1
    43   11   41 1
    44   11   42 1
    45   12   43 1
    46   12   44 1
    47   13   45 1
    48   13   46 1
    49   14   47 1
    50   14   48 1
    51   15   49 1
    52   16   50 1
    53   17   51 1
    54   18   52 1
    55   18   53 1
    56   18   54 1
    57   19   55 1
    58   19   56 1
    59   19   57 1
    60   20   58 1
    61   20   59 1
    62   21   60 1
    63   21   61 1
    64   22   62 1
    65   22   63 1
    66   23   64 1
    67   24   65 1
    68   26   66 1
    69   26   67 1
    70   27   68 1
    71   27   69 1
    72   28   70 1
    73   29   71 1
    74   34   72 1
@<TRIPOS>MOLECULE
1dwc_ligand_244
   72    74     0     0     0
SMALL
USER_CHARGES

mmff94s_NoEstat = 80.23
@<TRIPOS>ATOM
      1 C1         -2.8453   -5.2759    6.6308 C.ar      1 <0>        -0.1945
      2 C2         -2.2322   -5.1306    7.8734 C.ar      1 <0>        -0.0294
      3 C3         -2.0700   -5.3199    5.4760 C.ar      1 <0>        -0.0143
      4 C4         -0.8370   -5.0243    7.9679 C.ar      1 <0>        -0.1552
      5 C5         -0.0434   -5.0968    6.8063 C.ar      1 <0>         0.3076
      6 C6         -0.6800   -5.2276    5.5634 C.ar      1 <0>        -0.4908
      7 C7          1.0326   -1.5891   -0.1526 C.2       1 <0>         0.5994
      8 C8          0.8654   -1.4427    3.2413 C.2       1 <0>         0.6462
      9 C9         -3.7312   -0.3416    0.0935 C.cat     1 <0>         0.6305
     10 C10        -0.1907   -4.8756    9.3242 C.3       1 <0>        -0.0319
     11 C11         4.0928   -0.4819    1.7658 C.3       1 <0>        -0.0918
     12 C12         3.2369   -2.4756    0.5172 C.3       1 <0>        -0.0841
     13 C13         2.6673   -0.1389    2.1793 C.3       1 <0>         0.0870
     14 C14         2.0228   -5.0431    8.1470 C.3       1 <0>         0.2023
     15 C15         1.8171   -2.1794    1.0075 C.3       1 <0>         0.0778
     16 C16         1.2359   -4.3091    9.2381 C.3       1 <0>        -0.0746
     17 C17         4.1123   -1.2187    0.4240 C.3       1 <0>        -0.0681
     18 C18         1.2365   -2.7918    9.0202 C.3       1 <0>        -0.0944
     19 C19         5.5413   -1.5810    0.0243 C.3       1 <0>        -0.0918
     20 C20        -2.1115   -1.2711    3.3990 C.3       1 <0>        -0.1192
     21 C21        -1.3133   -2.4479    3.9716 C.3       1 <0>        -0.0916
     22 C22        -2.5427   -1.5156    1.9582 C.3       1 <0>         0.1883
     23 C23        -0.0078   -2.6730    3.2260 C.3       1 <0>         0.1952
     24 N1          1.3401   -4.9869    6.8682 N.pl3     1 <0>        -0.7670
     25 N2          1.7920   -1.3156    2.2000 N.am      1 <0>        -0.4509
     26 N3         -4.4336    0.7533   -0.3991 N.pl3     1 <0>        -0.8477
     27 N4         -3.4755   -1.4179   -0.7493 N.pl3     1 <0>        -0.8633
     28 N5         -3.2779   -0.3818    1.4164 N.pl3     1 <0>        -0.7419
     29 N6          0.7961   -3.6905    3.9267 N.pl3     1 <0>        -0.8860
     30 O1          0.4506   -0.5148   -0.1318 O.2       1 <0>        -0.5199
     31 O2          0.7326   -0.6231    4.1542 O.2       1 <0>        -0.6131
     32 O3          1.3500   -6.1855    4.2455 O.2       1 <0>        -0.6576
     33 O4         -0.7339   -5.5366    2.9962 O.2       1 <0>        -0.6482
     34 O5          1.0619   -2.4207   -1.2226 O.3       1 <0>        -0.6303
     35 S1          0.2254   -5.2894    4.0556 S.o2      1 <0>         1.5193
     36 H1         -3.9272   -5.3514    6.5631 H         1 <0>         0.1426
     37 H2         -2.8460   -5.0943    8.7703 H         1 <0>         0.1398
     38 H3         -2.5369   -5.4268    4.5019 H         1 <0>         0.1599
     39 H4         -0.8030   -4.2318    9.9673 H         1 <0>         0.0574
     40 H5         -0.1565   -5.8697    9.7881 H         1 <0>         0.0629
     41 H6          4.6862    0.4377    1.6990 H         1 <0>         0.0614
     42 H7          4.5556   -1.1085    2.5390 H         1 <0>         0.0593
     43 H8          3.7056   -3.1781    1.2199 H         1 <0>         0.0841
     44 H9          3.2100   -2.9795   -0.4573 H         1 <0>         0.0679
     45 H10         2.6813    0.3462    3.1608 H         1 <0>         0.0826
     46 H11         2.2276    0.5771    1.4744 H         1 <0>         0.0383
     47 H12         3.0237   -4.6099    8.0414 H         1 <0>         0.0556
     48 H13         2.1566   -6.0940    8.4317 H         1 <0>         0.0415
     49 H14         1.3264   -3.1308    1.2358 H         1 <0>         0.0851
     50 H15         1.7316   -4.4829   10.2012 H         1 <0>         0.0639
     51 H16         3.7098   -0.5563   -0.3523 H         1 <0>         0.0584
     52 H17         0.2205   -2.4295    8.8367 H         1 <0>         0.0401
     53 H18         1.6320   -2.2769    9.9008 H         1 <0>         0.0440
     54 H19         1.8571   -2.5275    8.1588 H         1 <0>         0.0459
     55 H20         5.5642   -2.5489   -0.4852 H         1 <0>         0.0456
     56 H21         5.9547   -0.8262   -0.6513 H         1 <0>         0.0366
     57 H22         6.1838   -1.6417    0.9078 H         1 <0>         0.0474
     58 H23        -2.9980   -1.0942    4.0198 H         1 <0>         0.0800
     59 H24        -1.5025   -0.3604    3.4316 H         1 <0>         0.0681
     60 H25        -1.9335   -3.3536    3.9489 H         1 <0>         0.0740
     61 H26        -1.0849   -2.2531    5.0271 H         1 <0>         0.0631
     62 H27        -3.1767   -2.4047    1.8804 H         1 <0>         0.0970
     63 H28        -1.6627   -1.6712    1.3260 H         1 <0>         0.0725
     64 H29        -0.1638   -2.9774    2.1921 H         1 <0>         0.0839
     65 H30         1.8703   -5.1206    6.0159 H         1 <0>         0.4531
     66 H31        -4.6452    1.5611    0.1804 H         1 <0>         0.4798
     67 H32        -4.7603    0.7741   -1.3624 H         1 <0>         0.4881
     68 H33        -2.9649   -2.2343   -0.4217 H         1 <0>         0.4801
     69 H34        -3.7917   -1.4164   -1.7161 H         1 <0>         0.4806
     70 H35        -3.4808    0.4232    2.0108 H         1 <0>         0.4689
     71 H36         1.8068   -3.5190    3.9555 H         1 <0>         0.4505
     72 H37         0.5588   -2.0578   -1.9826 H         1 <0>         0.4443
@<TRIPOS>BOND
     1    1    2 ar
     2    1    3 ar
     3    2    4 ar
     4    3    6 ar
     5    4    5 ar
     6    4   10 1
     7    5    6 ar
     8    5   24 1
     9    6   35 1
    10    7   15 1
    11    7   30 2
    12    7   34 1
    13    8   23 1
    14    8   25 am
    15    8   31 2
    16    9   26 1
    17    9   27 1
    18    9   28 1
    19   10   16 1
    20   11   13 1
    21   11   17 1
    22   12   15 1
    23   12   17 1
    24   13   25 1
    25   14   16 1
    26   14   24 1
    27   15   25 1
    28   16   18 1
    29   17   19 1
    30   20   21 1
    31   20   22 1
    32   21   23 1
    33   22   28 1
    34   23   29 1
    35   29   35 1
    36   32   35 2
    37   33   35 2
    38    1   36 1
    39    2   37 1
    40    3   38 1
    41   10   39 1
    42   10   40 1
    43   11   41 1
    44   11   42 1
    45   12   43 1
    46   12   44 1
    47   13   45 1
    48   13   46 1
    49   14   47 1
    50   14   48 1
    51   15   49 1
    52   16   50 1
    53   17   51 1
    54   18   52 1
    55   18   53 1
    56   18   54 1
    57   19   55 1
    58   19   56 1
    59   19   57 1
    60   20   58 1
    61   20   59 1
    62   21   60 1
    63   21   61 1
    64   22   62 1
    65   22   63 1
    66   23   64 1
    67   24   65 1
    68   26   66 1
    69   26   67 1
    70   27   68 1
    71   27   69 1
    72   28   70 1
    73   29   71 1
    74   34   72 1
@<TRIPOS>MOLECULE
1dwc_ligand_245
   72    74     0     0     0
SMALL
USER_CHARGES

mmff94s_NoEstat = 80.25
@<TRIPOS>ATOM
      1 C1          7.4663   -1.7419   -5.0555 C.ar      1 <0>        -0.1945
      2 C2          7.8189   -3.0367   -5.4300 C.ar      1 <0>        -0.0294
      3 C3          6.9552   -1.5029   -3.7834 C.ar      1 <0>        -0.0143
      4 C4          7.6581   -4.1030   -4.5334 C.ar      1 <0>        -0.1552
      5 C5          7.1684   -3.8650   -3.2343 C.ar      1 <0>         0.3076
      6 C6          6.8044   -2.5574   -2.8813 C.ar      1 <0>        -0.4908
      7 C7          3.7685    1.5685    0.3235 C.2       1 <0>         0.5994
      8 C8          2.9466   -1.3973   -0.6457 C.2       1 <0>         0.6462
      9 C9          2.3421   -0.8722   -6.0873 C.cat     1 <0>         0.6305
     10 C10         8.0535   -5.4978   -4.9550 C.3       1 <0>        -0.0319
     11 C11         1.8611    1.7587   -2.3835 C.3       1 <0>        -0.0918
     12 C12         1.3294    1.8958    0.1130 C.3       1 <0>        -0.0841
     13 C13         1.7075    0.2690   -2.0963 C.3       1 <0>         0.0870
     14 C14         7.5357   -6.2183   -2.6043 C.3       1 <0>         0.2023
     15 C15         2.4335    0.8481    0.2329 C.3       1 <0>         0.0778
     16 C16         7.3986   -6.5839   -4.0862 C.3       1 <0>        -0.0746
     17 C17         1.3508    2.6418   -1.2332 C.3       1 <0>        -0.0681
     18 C18         5.9378   -6.8286   -4.4814 C.3       1 <0>        -0.0944
     19 C19        -0.0342    3.2135   -1.5417 C.3       1 <0>        -0.0918
     20 C20         2.8965   -3.7759   -3.7050 C.3       1 <0>        -0.1192
     21 C21         2.4114   -3.0756   -2.4306 C.3       1 <0>        -0.0916
     22 C22         3.3037   -2.7834   -4.7871 C.3       1 <0>         0.1883
     23 C23         3.4544   -2.1251   -1.8653 C.3       1 <0>         0.1952
     24 N1          6.9914   -4.9024   -2.3274 N.pl3     1 <0>        -0.7670
     25 N2          2.3949   -0.1309   -0.8598 N.am      1 <0>        -0.4509
     26 N3          1.2724   -0.0489   -6.4231 N.pl3     1 <0>        -0.8477
     27 N4          3.5763   -0.6609   -6.6925 N.pl3     1 <0>        -0.8633
     28 N5          2.2019   -1.9060   -5.1551 N.pl3     1 <0>        -0.7419
     29 N6          4.6097   -2.8934   -1.3678 N.pl3     1 <0>        -0.8860
     30 O1          4.0589    2.4051    1.1656 O.2       1 <0>        -0.5199
     31 O2          3.0377   -1.9312    0.4627 O.2       1 <0>        -0.6131
     32 O3          6.9529   -2.8526   -0.2994 O.2       1 <0>        -0.6576
     33 O4          5.9925   -0.7285   -1.2427 O.2       1 <0>        -0.6482
     34 O5          4.6017    1.1585   -0.6640 O.3       1 <0>        -0.6303
     35 S1          6.1490   -2.1694   -1.2948 S.o2      1 <0>         1.5193
     36 H1          7.5871   -0.9204   -5.7565 H         1 <0>         0.1426
     37 H2          8.2148   -3.2146   -6.4271 H         1 <0>         0.1398
     38 H3          6.6714   -0.4992   -3.4825 H         1 <0>         0.1599
     39 H4          7.7935   -5.6635   -6.0077 H         1 <0>         0.0574
     40 H5          9.1448   -5.5757   -4.8678 H         1 <0>         0.0629
     41 H6          2.9275    1.9711   -2.5379 H         1 <0>         0.0614
     42 H7          1.3587    2.0144   -3.3237 H         1 <0>         0.0593
     43 H8          0.3614    1.3894    0.2306 H         1 <0>         0.0841
     44 H9          1.3961    2.6253    0.9302 H         1 <0>         0.0679
     45 H10         0.6501    0.0044   -1.9791 H         1 <0>         0.0826
     46 H11         2.0979   -0.3101   -2.9388 H         1 <0>         0.0383
     47 H12         7.0247   -6.9593   -1.9795 H         1 <0>         0.0556
     48 H13         8.5943   -6.2318   -2.3170 H         1 <0>         0.0415
     49 H14         2.3194    0.3128    1.1832 H         1 <0>         0.0851
     50 H15         7.9285   -7.5282   -4.2621 H         1 <0>         0.0639
     51 H16         2.0299    3.4998   -1.1486 H         1 <0>         0.0584
     52 H17         5.6097   -6.0886   -5.2174 H         1 <0>         0.0401
     53 H18         5.8194   -7.8248   -4.9181 H         1 <0>         0.0440
     54 H19         5.2856   -6.7563   -3.6060 H         1 <0>         0.0459
     55 H20         0.0409    4.0371   -2.2580 H         1 <0>         0.0456
     56 H21        -0.6818    2.4425   -1.9698 H         1 <0>         0.0366
     57 H22        -0.5055    3.5921   -0.6298 H         1 <0>         0.0474
     58 H23         3.7485   -4.4232   -3.4647 H         1 <0>         0.0800
     59 H24         2.1002   -4.4168   -4.1006 H         1 <0>         0.0681
     60 H25         2.1309   -3.8309   -1.6847 H         1 <0>         0.0740
     61 H26         1.5011   -2.5046   -2.6534 H         1 <0>         0.0631
     62 H27         3.6470   -3.3002   -5.6889 H         1 <0>         0.0970
     63 H28         4.1221   -2.1523   -4.4264 H         1 <0>         0.0725
     64 H29         3.7902   -1.3903   -2.5956 H         1 <0>         0.0839
     65 H30         6.7085   -4.6707   -1.3830 H         1 <0>         0.4531
     66 H31         0.3521   -0.1672   -6.0080 H         1 <0>         0.4798
     67 H32         1.3829    0.7003   -7.1025 H         1 <0>         0.4881
     68 H33         4.3793   -1.2442   -6.4701 H         1 <0>         0.4801
     69 H34         3.7085    0.0836   -7.3728 H         1 <0>         0.4806
     70 H35         1.2837   -2.0363   -4.7277 H         1 <0>         0.4689
     71 H36         4.3912   -3.6637   -0.7270 H         1 <0>         0.4505
     72 H37         5.4695    1.6141   -0.6238 H         1 <0>         0.4443
@<TRIPOS>BOND
     1    1    2 ar
     2    1    3 ar
     3    2    4 ar
     4    3    6 ar
     5    4    5 ar
     6    4   10 1
     7    5    6 ar
     8    5   24 1
     9    6   35 1
    10    7   15 1
    11    7   30 2
    12    7   34 1
    13    8   23 1
    14    8   25 am
    15    8   31 2
    16    9   26 1
    17    9   27 1
    18    9   28 1
    19   10   16 1
    20   11   13 1
    21   11   17 1
    22   12   15 1
    23   12   17 1
    24   13   25 1
    25   14   16 1
    26   14   24 1
    27   15   25 1
    28   16   18 1
    29   17   19 1
    30   20   21 1
    31   20   22 1
    32   21   23 1
    33   22   28 1
    34   23   29 1
    35   29   35 1
    36   32   35 2
    37   33   35 2
    38    1   36 1
    39    2   37 1
    40    3   38 1
    41   10   39 1
    42   10   40 1
    43   11   41 1
    44   11   42 1
    45   12   43 1
    46   12   44 1
    47   13   45 1
    48   13   46 1
    49   14   47 1
    50   14   48 1
    51   15   49 1
    52   16   50 1
    53   17   51 1
    54   18   52 1
    55   18   53 1
    56   18   54 1
    57   19   55 1
    58   19   56 1
    59   19   57 1
    60   20   58 1
    61   20   59 1
    62   21   60 1
    63   21   61 1
    64   22   62 1
    65   22   63 1
    66   23   64 1
    67   24   65 1
    68   26   66 1
    69   26   67 1
    70   27   68 1
    71   27   69 1
    72   28   70 1
    73   29   71 1
    74   34   72 1
@<TRIPOS>MOLECULE
1dwc_ligand_246
   72    74     0     0     0
SMALL
USER_CHARGES

mmff94s_NoEstat = 80.27
@<TRIPOS>ATOM
      1 C1         -3.5731   -0.3507    6.7933 C.ar      1 <0>        -0.1945
      2 C2         -2.8629   -0.8352    7.8898 C.ar      1 <0>        -0.0294
      3 C3         -3.4972   -1.0111    5.5706 C.ar      1 <0>        -0.0143
      4 C4         -2.0739   -1.9881    7.7698 C.ar      1 <0>        -0.1552
      5 C5         -1.9688   -2.6459    6.5281 C.ar      1 <0>         0.3076
      6 C6         -2.7033   -2.1518    5.4404 C.ar      1 <0>        -0.4908
      7 C7          4.0428   -2.6510    3.1279 C.2       1 <0>         0.5994
      8 C8          0.8654   -1.4427    3.2413 C.2       1 <0>         0.6462
      9 C9         -0.6326   -5.9229   -1.4626 C.cat     1 <0>         0.6305
     10 C10        -1.3052   -2.4948    8.9666 C.3       1 <0>        -0.0319
     11 C11         3.0349   -0.4758    6.0475 C.3       1 <0>        -0.0918
     12 C12         3.4817   -2.8819    5.5206 C.3       1 <0>        -0.0841
     13 C13         2.5314   -0.2662    4.6251 C.3       1 <0>         0.0870
     14 C14        -0.2926   -4.2041    7.4373 C.3       1 <0>         0.2023
     15 C15         2.8926   -2.6899    4.1206 C.3       1 <0>         0.0778
     16 C16        -0.9358   -3.9782    8.8095 C.3       1 <0>        -0.0746
     17 C17         4.0802   -1.5931    6.1000 C.3       1 <0>        -0.0681
     18 C18        -0.0046   -4.4281    9.9318 C.3       1 <0>        -0.0944
     19 C19         4.5654   -1.8157    7.5311 C.3       1 <0>        -0.0918
     20 C20         0.0249   -2.8727    0.7002 C.3       1 <0>        -0.1192
     21 C21         0.3004   -3.5693    2.0376 C.3       1 <0>        -0.0916
     22 C22         0.2602   -3.7963   -0.4886 C.3       1 <0>         0.1883
     23 C23        -0.0078   -2.6730    3.2260 C.3       1 <0>         0.1952
     24 N1         -1.1954   -3.7907    6.3797 N.pl3     1 <0>        -0.7670
     25 N2          2.0252   -1.5038    4.0223 N.am      1 <0>        -0.4509
     26 N3         -1.4804   -7.0239   -1.4014 N.pl3     1 <0>        -0.8477
     27 N4          0.2178   -5.7819   -2.5539 N.pl3     1 <0>        -0.8633
     28 N5         -0.6182   -4.9567   -0.4508 N.pl3     1 <0>        -0.7419
     29 N6         -1.3760   -2.1385    3.1042 N.pl3     1 <0>        -0.8860
     30 O1          4.5855   -1.6340    2.7222 O.2       1 <0>        -0.5199
     31 O2          0.5240   -0.4555    2.5844 O.2       1 <0>        -0.6131
     32 O3         -2.3304   -4.3295    4.0644 O.2       1 <0>        -0.6576
     33 O4         -3.9087   -2.5768    3.1921 O.2       1 <0>        -0.6482
     34 O5          4.3885   -3.9048    2.7464 O.3       1 <0>        -0.6303
     35 S1         -2.6746   -2.9347    3.8647 S.o2      1 <0>         1.5193
     36 H1         -4.1882    0.5393    6.8939 H         1 <0>         0.1426
     37 H2         -2.9305   -0.3144    8.8420 H         1 <0>         0.1398
     38 H3         -4.0508   -0.6464    4.7113 H         1 <0>         0.1599
     39 H4         -0.3986   -1.8861    9.0767 H         1 <0>         0.0574
     40 H5         -1.9049   -2.3694    9.8765 H         1 <0>         0.0629
     41 H6          3.4643    0.4595    6.4257 H         1 <0>         0.0614
     42 H7          2.1893   -0.7290    6.6997 H         1 <0>         0.0593
     43 H8          2.6805   -3.2276    6.1882 H         1 <0>         0.0841
     44 H9          4.2439   -3.6714    5.5123 H         1 <0>         0.0679
     45 H10         1.7550    0.5058    4.6255 H         1 <0>         0.0826
     46 H11         3.3431    0.0962    3.9827 H         1 <0>         0.0383
     47 H12         0.6461   -3.6422    7.3545 H         1 <0>         0.0556
     48 H13        -0.0488   -5.2639    7.3032 H         1 <0>         0.0415
     49 H14         2.3173   -3.5850    3.8636 H         1 <0>         0.0851
     50 H15        -1.8536   -4.5786    8.8709 H         1 <0>         0.0639
     51 H16         4.9487   -1.2974    5.4988 H         1 <0>         0.0584
     52 H17         0.0610   -5.5198    9.9625 H         1 <0>         0.0401
     53 H18         1.0019   -4.0266    9.7806 H         1 <0>         0.0440
     54 H19        -0.3732   -4.0779   10.9006 H         1 <0>         0.0459
     55 H20         4.4326   -2.8615    7.8238 H         1 <0>         0.0456
     56 H21         5.6267   -1.5650    7.6207 H         1 <0>         0.0366
     57 H22         4.0032   -1.1886    8.2295 H         1 <0>         0.0474
     58 H23        -1.0105   -2.5120    0.6824 H         1 <0>         0.0800
     59 H24         0.6776   -1.9980    0.5976 H         1 <0>         0.0681
     60 H25         1.3460   -3.9033    2.0652 H         1 <0>         0.0740
     61 H26        -0.3175   -4.4733    2.1109 H         1 <0>         0.0631
     62 H27         1.2957   -4.1503   -0.5157 H         1 <0>         0.0970
     63 H28         0.0608   -3.2615   -1.4226 H         1 <0>         0.0725
     64 H29         0.1003   -3.1895    4.1787 H         1 <0>         0.0839
     65 H30        -1.0906   -4.1840    5.4525 H         1 <0>         0.4531
     66 H31        -2.1173   -7.1693   -0.6226 H         1 <0>         0.4798
     67 H32        -1.4841   -7.7223   -2.1412 H         1 <0>         0.4881
     68 H33         0.8505   -4.9892   -2.6303 H         1 <0>         0.4801
     69 H34         0.2286   -6.4677   -3.3050 H         1 <0>         0.4806
     70 H35        -1.2539   -5.0876    0.3375 H         1 <0>         0.4689
     71 H36        -1.4476   -1.1318    2.9219 H         1 <0>         0.4505
     72 H37         5.1292   -3.9010    2.1032 H         1 <0>         0.4443
@<TRIPOS>BOND
     1    1    2 ar
     2    1    3 ar
     3    2    4 ar
     4    3    6 ar
     5    4    5 ar
     6    4   10 1
     7    5    6 ar
     8    5   24 1
     9    6   35 1
    10    7   15 1
    11    7   30 2
    12    7   34 1
    13    8   23 1
    14    8   25 am
    15    8   31 2
    16    9   26 1
    17    9   27 1
    18    9   28 1
    19   10   16 1
    20   11   13 1
    21   11   17 1
    22   12   15 1
    23   12   17 1
    24   13   25 1
    25   14   16 1
    26   14   24 1
    27   15   25 1
    28   16   18 1
    29   17   19 1
    30   20   21 1
    31   20   22 1
    32   21   23 1
    33   22   28 1
    34   23   29 1
    35   29   35 1
    36   32   35 2
    37   33   35 2
    38    1   36 1
    39    2   37 1
    40    3   38 1
    41   10   39 1
    42   10   40 1
    43   11   41 1
    44   11   42 1
    45   12   43 1
    46   12   44 1
    47   13   45 1
    48   13   46 1
    49   14   47 1
    50   14   48 1
    51   15   49 1
    52   16   50 1
    53   17   51 1
    54   18   52 1
    55   18   53 1
    56   18   54 1
    57   19   55 1
    58   19   56 1
    59   19   57 1
    60   20   58 1
    61   20   59 1
    62   21   60 1
    63   21   61 1
    64   22   62 1
    65   22   63 1
    66   23   64 1
    67   24   65 1
    68   26   66 1
    69   26   67 1
    70   27   68 1
    71   27   69 1
    72   28   70 1
    73   29   71 1
    74   34   72 1
@<TRIPOS>MOLECULE
1dwc_ligand_247
   72    74     0     0     0
SMALL
USER_CHARGES

mmff94s_NoEstat = 80.28
@<TRIPOS>ATOM
      1 C1          0.2729   -5.6236   -0.4407 C.ar      1 <0>        -0.1945
      2 C2         -0.6484   -6.6112   -0.0987 C.ar      1 <0>        -0.0294
      3 C3          1.0504   -5.0282    0.5480 C.ar      1 <0>        -0.0143
      4 C4         -0.8004   -7.0071    1.2380 C.ar      1 <0>        -0.1552
      5 C5          0.0031   -6.4297    2.2408 C.ar      1 <0>         0.3076
      6 C6          0.9136   -5.4263    1.8789 C.ar      1 <0>        -0.4908
      7 C7         -1.2359   -0.6984    0.6725 C.2       1 <0>         0.5994
      8 C8          0.8654   -1.4427    3.2413 C.2       1 <0>         0.6462
      9 C9         -4.4066   -3.3472    6.8497 C.cat     1 <0>         0.6305
     10 C10        -1.7983   -8.0848    1.5877 C.3       1 <0>        -0.0319
     11 C11         1.8315    1.4466    1.1834 C.3       1 <0>        -0.0918
     12 C12         0.9831   -0.3423   -0.3484 C.3       1 <0>        -0.0841
     13 C13         1.0260    0.8397    2.3251 C.3       1 <0>         0.0870
     14 C14        -0.9225   -7.9557    3.9392 C.3       1 <0>         0.2023
     15 C15         0.2462   -1.0009    0.8207 C.3       1 <0>         0.0778
     16 C16        -2.1834   -8.0707    3.0760 C.3       1 <0>        -0.0746
     17 C17         1.1635    1.1707   -0.1661 C.3       1 <0>        -0.0681
     18 C18        -3.1963   -6.9649    3.3941 C.3       1 <0>        -0.0944
     19 C19         1.9862    1.7609   -1.3098 C.3       1 <0>        -0.0918
     20 C20        -1.0866   -2.1427    5.4567 C.3       1 <0>        -0.1192
     21 C21        -1.3133   -2.4479    3.9716 C.3       1 <0>        -0.0916
     22 C22        -2.3970   -1.9935    6.2196 C.3       1 <0>         0.1883
     23 C23        -0.0078   -2.6730    3.2260 C.3       1 <0>         0.1952
     24 N1         -0.1305   -6.7964    3.5741 N.pl3     1 <0>        -0.7670
     25 N2          0.7744   -0.5925    2.1333 N.am      1 <0>        -0.4509
     26 N3         -5.1439   -4.5252    6.7900 N.pl3     1 <0>        -0.8477
     27 N4         -4.8938   -2.2796    7.5959 N.pl3     1 <0>        -0.8633
     28 N5         -3.1876   -3.2152    6.1760 N.pl3     1 <0>        -0.7419
     29 N6          0.7961   -3.6905    3.9267 N.pl3     1 <0>        -0.8860
     30 O1         -1.8192    0.2321    1.2084 O.2       1 <0>        -0.5199
     31 O2          1.6103   -1.2468    4.2054 O.2       1 <0>        -0.6131
     32 O3          2.4834   -5.6363    3.9445 O.2       1 <0>        -0.6576
     33 O4          2.8151   -3.7334    2.3342 O.2       1 <0>        -0.6482
     34 O5         -1.8312   -1.6071   -0.1380 O.3       1 <0>        -0.6303
     35 S1          1.9328   -4.6215    3.0666 S.o2      1 <0>         1.5193
     36 H1          0.3819   -5.3163   -1.4773 H         1 <0>         0.1426
     37 H2         -1.2538   -7.0689   -0.8775 H         1 <0>         0.1398
     38 H3          1.7672   -4.2535    0.2943 H         1 <0>         0.1599
     39 H4         -2.7011   -7.9788    0.9739 H         1 <0>         0.0574
     40 H5         -1.3433   -9.0529    1.3421 H         1 <0>         0.0629
     41 H6          1.9320    2.5271    1.3399 H         1 <0>         0.0614
     42 H7          2.8448    1.0248    1.1881 H         1 <0>         0.0593
     43 H8          1.9753   -0.8057   -0.4365 H         1 <0>         0.0841
     44 H9          0.4607   -0.5403   -1.2930 H         1 <0>         0.0679
     45 H10         1.5496    1.0140    3.2709 H         1 <0>         0.0826
     46 H11         0.0484    1.3304    2.4051 H         1 <0>         0.0383
     47 H12        -1.1905   -7.8906    4.9997 H         1 <0>         0.0556
     48 H13        -0.3087   -8.8568    3.8183 H         1 <0>         0.0415
     49 H14         0.3330   -2.0869    0.7143 H         1 <0>         0.0851
     50 H15        -2.6797   -9.0207    3.3097 H         1 <0>         0.0639
     51 H16         0.1795    1.6553   -0.1825 H         1 <0>         0.0584
     52 H17        -3.3457   -6.3186    2.5240 H         1 <0>         0.0401
     53 H18        -4.1623   -7.3968    3.6724 H         1 <0>         0.0440
     54 H19        -2.8427   -6.3474    4.2251 H         1 <0>         0.0459
     55 H20         1.9407    1.1129   -2.1902 H         1 <0>         0.0456
     56 H21         1.6048    2.7479   -1.5883 H         1 <0>         0.0366
     57 H22         3.0342    1.8673   -1.0143 H         1 <0>         0.0474
     58 H23        -0.4913   -2.9455    5.9081 H         1 <0>         0.0800
     59 H24        -0.5143   -1.2136    5.5600 H         1 <0>         0.0681
     60 H25        -1.8840   -1.6286    3.5148 H         1 <0>         0.0740
     61 H26        -1.9315   -3.3495    3.8758 H         1 <0>         0.0631
     62 H27        -3.0022   -1.1781    5.8107 H         1 <0>         0.0970
     63 H28        -2.1935   -1.7693    7.2716 H         1 <0>         0.0725
     64 H29        -0.1638   -2.9774    2.1921 H         1 <0>         0.0839
     65 H30         0.5206   -6.4083    4.2456 H         1 <0>         0.4531
     66 H31        -4.8283   -5.3304    6.2558 H         1 <0>         0.4798
     67 H32        -6.0298   -4.6126    7.2825 H         1 <0>         0.4881
     68 H33        -4.3804   -1.4040    7.6609 H         1 <0>         0.4801
     69 H34        -5.7763   -2.3468    8.0972 H         1 <0>         0.4806
     70 H35        -2.8559   -4.0162    5.6365 H         1 <0>         0.4689
     71 H36         0.9382   -3.5340    4.9302 H         1 <0>         0.4505
     72 H37        -2.7902   -1.4300   -0.2450 H         1 <0>         0.4443
@<TRIPOS>BOND
     1    1    2 ar
     2    1    3 ar
     3    2    4 ar
     4    3    6 ar
     5    4    5 ar
     6    4   10 1
     7    5    6 ar
     8    5   24 1
     9    6   35 1
    10    7   15 1
    11    7   30 2
    12    7   34 1
    13    8   23 1
    14    8   25 am
    15    8   31 2
    16    9   26 1
    17    9   27 1
    18    9   28 1
    19   10   16 1
    20   11   13 1
    21   11   17 1
    22   12   15 1
    23   12   17 1
    24   13   25 1
    25   14   16 1
    26   14   24 1
    27   15   25 1
    28   16   18 1
    29   17   19 1
    30   20   21 1
    31   20   22 1
    32   21   23 1
    33   22   28 1
    34   23   29 1
    35   29   35 1
    36   32   35 2
    37   33   35 2
    38    1   36 1
    39    2   37 1
    40    3   38 1
    41   10   39 1
    42   10   40 1
    43   11   41 1
    44   11   42 1
    45   12   43 1
    46   12   44 1
    47   13   45 1
    48   13   46 1
    49   14   47 1
    50   14   48 1
    51   15   49 1
    52   16   50 1
    53   17   51 1
    54   18   52 1
    55   18   53 1
    56   18   54 1
    57   19   55 1
    58   19   56 1
    59   19   57 1
    60   20   58 1
    61   20   59 1
    62   21   60 1
    63   21   61 1
    64   22   62 1
    65   22   63 1
    66   23   64 1
    67   24   65 1
    68   26   66 1
    69   26   67 1
    70   27   68 1
    71   27   69 1
    72   28   70 1
    73   29   71 1
    74   34   72 1
@<TRIPOS>MOLECULE
1dwc_ligand_248
   72    74     0     0     0
SMALL
USER_CHARGES

mmff94s_NoEstat = 80.29
@<TRIPOS>ATOM
      1 C1         -2.2959   -2.3538    7.8119 C.ar      1 <0>        -0.1945
      2 C2         -2.6720   -1.0237    7.9869 C.ar      1 <0>        -0.0294
      3 C3         -2.3070   -2.9163    6.5390 C.ar      1 <0>        -0.0143
      4 C4         -3.0584   -0.2458    6.8861 C.ar      1 <0>        -0.1552
      5 C5         -3.1002   -0.8160    5.5982 C.ar      1 <0>         0.3076
      6 C6         -2.7033   -2.1518    5.4404 C.ar      1 <0>        -0.4908
      7 C7          2.0323   -3.0842    5.9821 C.2       1 <0>         0.5994
      8 C8          0.8654   -1.4427    3.2413 C.2       1 <0>         0.6462
      9 C9         -0.6326   -5.9229   -1.4626 C.cat     1 <0>         0.6305
     10 C10        -3.4700    1.1919    7.0953 C.3       1 <0>        -0.0319
     11 C11         3.0911    0.4998    5.4298 C.3       1 <0>        -0.0918
     12 C12         1.5534   -0.8369    6.8842 C.3       1 <0>        -0.0841
     13 C13         2.8818   -0.5022    4.3015 C.3       1 <0>         0.0870
     14 C14        -4.0628    1.2474    4.6598 C.3       1 <0>         0.2023
     15 C15         1.2754   -1.7924    5.7207 C.3       1 <0>         0.0778
     16 C16        -3.3611    2.0019    5.7939 C.3       1 <0>        -0.0746
     17 C17         2.9339   -0.1724    6.7962 C.3       1 <0>        -0.0681
     18 C18        -3.9527    3.3976    5.9715 C.3       1 <0>        -0.0944
     19 C19         3.1216    0.8403    7.9242 C.3       1 <0>        -0.0918
     20 C20         0.0249   -2.8727    0.7002 C.3       1 <0>        -0.1192
     21 C21         0.3004   -3.5693    2.0376 C.3       1 <0>        -0.0916
     22 C22         0.2602   -3.7963   -0.4886 C.3       1 <0>         0.1883
     23 C23        -0.0078   -2.6730    3.2260 C.3       1 <0>         0.1952
     24 N1         -3.4782   -0.0694    4.4890 N.pl3     1 <0>        -0.7670
     25 N2          1.5999   -1.2067    4.4091 N.am      1 <0>        -0.4509
     26 N3         -1.4804   -7.0239   -1.4014 N.pl3     1 <0>        -0.8477
     27 N4          0.2178   -5.7819   -2.5539 N.pl3     1 <0>        -0.8633
     28 N5         -0.6182   -4.9567   -0.4508 N.pl3     1 <0>        -0.7419
     29 N6         -1.3760   -2.1385    3.1042 N.pl3     1 <0>        -0.8860
     30 O1          3.1450   -3.3455    5.5497 O.2       1 <0>        -0.5199
     31 O2          0.8891   -0.7105    2.2483 O.2       1 <0>        -0.6131
     32 O3         -2.3304   -4.3295    4.0644 O.2       1 <0>        -0.6576
     33 O4         -3.9087   -2.5768    3.1921 O.2       1 <0>        -0.6482
     34 O5          1.3022   -3.9170    6.7635 O.3       1 <0>        -0.6303
     35 S1         -2.6746   -2.9347    3.8647 S.o2      1 <0>         1.5193
     36 H1         -1.9909   -2.9498    8.6676 H         1 <0>         0.1426
     37 H2         -2.6574   -0.5917    8.9847 H         1 <0>         0.1398
     38 H3         -2.0103   -3.9495    6.3897 H         1 <0>         0.1599
     39 H4         -4.5027    1.2042    7.4664 H         1 <0>         0.0574
     40 H5         -2.8343    1.6552    7.8598 H         1 <0>         0.0629
     41 H6          4.0885    0.9467    5.3426 H         1 <0>         0.0614
     42 H7          2.3630    1.3153    5.3324 H         1 <0>         0.0593
     43 H8          0.7851   -0.0517    6.8776 H         1 <0>         0.0841
     44 H9          1.4567   -1.3607    7.8437 H         1 <0>         0.0679
     45 H10         2.9560    0.0148    3.3392 H         1 <0>         0.0826
     46 H11         3.6704   -1.2643    4.3172 H         1 <0>         0.0383
     47 H12        -5.1346    1.1449    4.8705 H         1 <0>         0.0556
     48 H13        -3.9688    1.8032    3.7203 H         1 <0>         0.0415
     49 H14         0.2160   -2.0663    5.7460 H         1 <0>         0.0851
     50 H15        -2.2992    2.1152    5.5368 H         1 <0>         0.0639
     51 H16         3.7104   -0.9392    6.9078 H         1 <0>         0.0584
     52 H17        -3.6607    4.0473    5.1410 H         1 <0>         0.0401
     53 H18        -5.0453    3.3508    6.0047 H         1 <0>         0.0440
     54 H19        -3.5987    3.8493    6.9030 H         1 <0>         0.0459
     55 H20         2.2527    0.8404    8.5891 H         1 <0>         0.0456
     56 H21         4.0086    0.5961    8.5164 H         1 <0>         0.0366
     57 H22         3.2450    1.8489    7.5186 H         1 <0>         0.0474
     58 H23        -1.0105   -2.5120    0.6824 H         1 <0>         0.0800
     59 H24         0.6776   -1.9980    0.5976 H         1 <0>         0.0681
     60 H25         1.3460   -3.9033    2.0652 H         1 <0>         0.0740
     61 H26        -0.3175   -4.4733    2.1109 H         1 <0>         0.0631
     62 H27         1.2957   -4.1503   -0.5157 H         1 <0>         0.0970
     63 H28         0.0608   -3.2615   -1.4226 H         1 <0>         0.0725
     64 H29         0.1003   -3.1895    4.1787 H         1 <0>         0.0839
     65 H30        -3.5654   -0.5418    3.5977 H         1 <0>         0.4531
     66 H31        -2.1173   -7.1693   -0.6226 H         1 <0>         0.4798
     67 H32        -1.4841   -7.7223   -2.1412 H         1 <0>         0.4881
     68 H33         0.8505   -4.9892   -2.6303 H         1 <0>         0.4801
     69 H34         0.2286   -6.4677   -3.3050 H         1 <0>         0.4806
     70 H35        -1.2539   -5.0876    0.3375 H         1 <0>         0.4689
     71 H36        -1.4476   -1.1318    2.9219 H         1 <0>         0.4505
     72 H37         1.7734   -4.7586    6.9424 H         1 <0>         0.4443
@<TRIPOS>BOND
     1    1    2 ar
     2    1    3 ar
     3    2    4 ar
     4    3    6 ar
     5    4    5 ar
     6    4   10 1
     7    5    6 ar
     8    5   24 1
     9    6   35 1
    10    7   15 1
    11    7   30 2
    12    7   34 1
    13    8   23 1
    14    8   25 am
    15    8   31 2
    16    9   26 1
    17    9   27 1
    18    9   28 1
    19   10   16 1
    20   11   13 1
    21   11   17 1
    22   12   15 1
    23   12   17 1
    24   13   25 1
    25   14   16 1
    26   14   24 1
    27   15   25 1
    28   16   18 1
    29   17   19 1
    30   20   21 1
    31   20   22 1
    32   21   23 1
    33   22   28 1
    34   23   29 1
    35   29   35 1
    36   32   35 2
    37   33   35 2
    38    1   36 1
    39    2   37 1
    40    3   38 1
    41   10   39 1
    42   10   40 1
    43   11   41 1
    44   11   42 1
    45   12   43 1
    46   12   44 1
    47   13   45 1
    48   13   46 1
    49   14   47 1
    50   14   48 1
    51   15   49 1
    52   16   50 1
    53   17   51 1
    54   18   52 1
    55   18   53 1
    56   18   54 1
    57   19   55 1
    58   19   56 1
    59   19   57 1
    60   20   58 1
    61   20   59 1
    62   21   60 1
    63   21   61 1
    64   22   62 1
    65   22   63 1
    66   23   64 1
    67   24   65 1
    68   26   66 1
    69   26   67 1
    70   27   68 1
    71   27   69 1
    72   28   70 1
    73   29   71 1
    74   34   72 1
@<TRIPOS>MOLECULE
1dwc_ligand_249
   72    74     0     0     0
SMALL
USER_CHARGES

mmff94s_NoEstat = 80.29
@<TRIPOS>ATOM
      1 C1         -3.2355   -5.0148    6.4799 C.ar      1 <0>        -0.1945
      2 C2         -4.2884   -5.5400    5.7336 C.ar      1 <0>        -0.0294
      3 C3         -2.6234   -3.8310    6.0789 C.ar      1 <0>        -0.0143
      4 C4         -4.7385   -4.8800    4.5812 C.ar      1 <0>        -0.1552
      5 C5         -4.1052   -3.6965    4.1523 C.ar      1 <0>         0.3076
      6 C6         -3.0575   -3.1757    4.9254 C.ar      1 <0>        -0.4908
      7 C7          2.9525   -3.7210    4.6633 C.2       1 <0>         0.5994
      8 C8          0.8654   -1.4427    3.2413 C.2       1 <0>         0.6462
      9 C9          0.2237   -3.7376   -2.9912 C.cat     1 <0>         0.6305
     10 C10        -5.8759   -5.4673    3.7804 C.3       1 <0>        -0.0319
     11 C11         3.8997   -0.0663    4.7953 C.3       1 <0>        -0.0918
     12 C12         3.0155   -1.8674    6.2922 C.3       1 <0>        -0.0841
     13 C13         3.1900   -0.7124    3.6122 C.3       1 <0>         0.0870
     14 C14        -5.4818   -3.6385    2.1112 C.3       1 <0>         0.2023
     15 C15         2.2314   -2.4635    5.1202 C.3       1 <0>         0.0778
     16 C16        -6.5499   -4.4038    2.8993 C.3       1 <0>        -0.0746
     17 C17         4.2756   -1.1130    5.8473 C.3       1 <0>        -0.0681
     18 C18        -7.5704   -5.0425    1.9612 C.3       1 <0>        -0.0944
     19 C19         4.9663   -0.4582    7.0420 C.3       1 <0>        -0.0918
     20 C20         0.0249   -2.8727    0.7002 C.3       1 <0>        -0.1192
     21 C21         0.3004   -3.5693    2.0376 C.3       1 <0>        -0.0916
     22 C22         0.2602   -3.7963   -0.4886 C.3       1 <0>         0.1883
     23 C23        -0.0078   -2.6730    3.2260 C.3       1 <0>         0.1952
     24 N1         -4.5300   -3.0206    3.0151 N.pl3     1 <0>        -0.7670
     25 N2          2.0252   -1.5038    4.0223 N.am      1 <0>        -0.4509
     26 N3         -0.0152   -3.0669   -4.1862 N.pl3     1 <0>        -0.8477
     27 N4          0.6744   -5.0526   -3.0302 N.pl3     1 <0>        -0.8633
     28 N5          0.0202   -3.1173   -1.7538 N.pl3     1 <0>        -0.7419
     29 N6         -1.3760   -2.1385    3.1042 N.pl3     1 <0>        -0.8860
     30 O1          3.2285   -4.6714    5.3802 O.2       1 <0>        -0.5199
     31 O2          0.5240   -0.4555    2.5844 O.2       1 <0>        -0.6131
     32 O3         -3.2514   -0.7039    4.1330 O.2       1 <0>        -0.6576
     33 O4         -1.2997   -1.3890    5.5632 O.2       1 <0>        -0.6482
     34 O5          3.2541   -3.6472    3.3439 O.3       1 <0>        -0.6303
     35 S1         -2.2397   -1.6774    4.4970 S.o2      1 <0>         1.5193
     36 H1         -2.8954   -5.5270    7.3757 H         1 <0>         0.1426
     37 H2         -4.7626   -6.4639    6.0561 H         1 <0>         0.1398
     38 H3         -1.8065   -3.4094    6.6557 H         1 <0>         0.1599
     39 H4         -5.4767   -6.2793    3.1592 H         1 <0>         0.0574
     40 H5         -6.6243   -5.8997    4.4558 H         1 <0>         0.0629
     41 H6          4.7987    0.4538    4.4437 H         1 <0>         0.0614
     42 H7          3.2442    0.6909    5.2441 H         1 <0>         0.0593
     43 H8          2.3586   -1.1679    6.8273 H         1 <0>         0.0841
     44 H9          3.2888   -2.6509    7.0104 H         1 <0>         0.0679
     45 H10         2.8945    0.0639    2.8988 H         1 <0>         0.0826
     46 H11         3.8704   -1.3909    3.0835 H         1 <0>         0.0383
     47 H12        -4.9499   -4.3126    1.4283 H         1 <0>         0.0556
     48 H13        -5.9488   -2.8592    1.4988 H         1 <0>         0.0415
     49 H14         1.2607   -2.8048    5.4936 H         1 <0>         0.0851
     50 H15        -7.0837   -3.6956    3.5475 H         1 <0>         0.0639
     51 H16         4.9839   -1.8245    5.4052 H         1 <0>         0.0584
     52 H17        -8.2149   -4.2783    1.5167 H         1 <0>         0.0401
     53 H18        -7.0658   -5.5804    1.1530 H         1 <0>         0.0440
     54 H19        -8.2016   -5.7514    2.5054 H         1 <0>         0.0459
     55 H20         4.4464   -0.7091    7.9715 H         1 <0>         0.0456
     56 H21         6.0020   -0.8015    7.1231 H         1 <0>         0.0366
     57 H22         4.9717    0.6305    6.9335 H         1 <0>         0.0474
     58 H23        -1.0105   -2.5120    0.6824 H         1 <0>         0.0800
     59 H24         0.6776   -1.9980    0.5976 H         1 <0>         0.0681
     60 H25         1.3460   -3.9033    2.0652 H         1 <0>         0.0740
     61 H26        -0.3175   -4.4733    2.1109 H         1 <0>         0.0631
     62 H27        -0.3909   -4.6751   -0.4416 H         1 <0>         0.0970
     63 H28         1.2981   -4.1440   -0.4920 H         1 <0>         0.0725
     64 H29         0.1003   -3.1895    4.1787 H         1 <0>         0.0839
     65 H30        -3.9968   -2.2176    2.7049 H         1 <0>         0.4531
     66 H31        -0.3470   -2.1063   -4.2064 H         1 <0>         0.4798
     67 H32         0.1347   -3.5257   -5.0818 H         1 <0>         0.4881
     68 H33         0.8589   -5.5723   -2.1756 H         1 <0>         0.4801
     69 H34         0.8324   -5.5290   -3.9149 H         1 <0>         0.4806
     70 H35        -0.3110   -2.1514   -1.7574 H         1 <0>         0.4689
     71 H36        -1.6042   -1.6955    2.2078 H         1 <0>         0.4505
     72 H37         3.7223   -4.4500    3.0297 H         1 <0>         0.4443
@<TRIPOS>BOND
     1    1    2 ar
     2    1    3 ar
     3    2    4 ar
     4    3    6 ar
     5    4    5 ar
     6    4   10 1
     7    5    6 ar
     8    5   24 1
     9    6   35 1
    10    7   15 1
    11    7   30 2
    12    7   34 1
    13    8   23 1
    14    8   25 am
    15    8   31 2
    16    9   26 1
    17    9   27 1
    18    9   28 1
    19   10   16 1
    20   11   13 1
    21   11   17 1
    22   12   15 1
    23   12   17 1
    24   13   25 1
    25   14   16 1
    26   14   24 1
    27   15   25 1
    28   16   18 1
    29   17   19 1
    30   20   21 1
    31   20   22 1
    32   21   23 1
    33   22   28 1
    34   23   29 1
    35   29   35 1
    36   32   35 2
    37   33   35 2
    38    1   36 1
    39    2   37 1
    40    3   38 1
    41   10   39 1
    42   10   40 1
    43   11   41 1
    44   11   42 1
    45   12   43 1
    46   12   44 1
    47   13   45 1
    48   13   46 1
    49   14   47 1
    50   14   48 1
    51   15   49 1
    52   16   50 1
    53   17   51 1
    54   18   52 1
    55   18   53 1
    56   18   54 1
    57   19   55 1
    58   19   56 1
    59   19   57 1
    60   20   58 1
    61   20   59 1
    62   21   60 1
    63   21   61 1
    64   22   62 1
    65   22   63 1
    66   23   64 1
    67   24   65 1
    68   26   66 1
    69   26   67 1
    70   27   68 1
    71   27   69 1
    72   28   70 1
    73   29   71 1
    74   34   72 1
@<TRIPOS>MOLECULE
1dwc_ligand_250
   72    74     0     0     0
SMALL
USER_CHARGES

mmff94s_NoEstat = 80.34
@<TRIPOS>ATOM
      1 C1         -2.9821   -5.2402    6.1755 C.ar      1 <0>        -0.1945
      2 C2         -4.2536   -5.5662    5.7083 C.ar      1 <0>        -0.0294
      3 C3         -2.3862   -4.0437    5.7881 C.ar      1 <0>        -0.0143
      4 C4         -4.9394   -4.6928    4.8521 C.ar      1 <0>        -0.1552
      5 C5         -4.3313   -3.4931    4.4321 C.ar      1 <0>         0.3076
      6 C6         -3.0575   -3.1757    4.9254 C.ar      1 <0>        -0.4908
      7 C7          2.9762   -3.0374    5.3790 C.2       1 <0>         0.5994
      8 C8          0.8654   -1.4427    3.2413 C.2       1 <0>         0.6462
      9 C9          2.1577   -4.6267   -1.7165 C.cat     1 <0>         0.6305
     10 C10        -6.3137   -5.0656    4.3497 C.3       1 <0>        -0.0319
     11 C11         2.4006    0.6688    5.8299 C.3       1 <0>        -0.0918
     12 C12         1.7620   -1.5078    6.8886 C.3       1 <0>        -0.0841
     13 C13         2.4565   -0.0177    4.4711 C.3       1 <0>         0.0870
     14 C14        -6.2170   -3.0044    2.9255 C.3       1 <0>         0.2023
     15 C15         1.7319   -2.1748    5.5110 C.3       1 <0>         0.0778
     16 C16        -7.0924   -3.8286    3.8752 C.3       1 <0>        -0.0746
     17 C17         2.7265   -0.3161    6.9557 C.3       1 <0>        -0.0681
     18 C18        -8.3998   -4.2353    3.2009 C.3       1 <0>        -0.0944
     19 C19         2.6468    0.3706    8.3178 C.3       1 <0>        -0.0918
     20 C20         1.7689   -4.0083    2.0091 C.3       1 <0>        -0.1192
     21 C21         0.3004   -3.5693    2.0376 C.3       1 <0>        -0.0916
     22 C22         2.0958   -4.8429    0.7769 C.3       1 <0>         0.1883
     23 C23        -0.0078   -2.6730    3.2260 C.3       1 <0>         0.1952
     24 N1         -4.9870   -2.6082    3.5850 N.pl3     1 <0>        -0.7670
     25 N2          1.5999   -1.2067    4.4091 N.am      1 <0>        -0.4509
     26 N3          1.9356   -3.8927   -2.8771 N.pl3     1 <0>        -0.8477
     27 N4          2.6719   -5.9149   -1.8171 N.pl3     1 <0>        -0.8633
     28 N5          1.8751   -4.0962   -0.4532 N.pl3     1 <0>        -0.7419
     29 N6         -1.3760   -2.1385    3.1042 N.pl3     1 <0>        -0.8860
     30 O1          4.0250   -2.6820    4.8621 O.2       1 <0>        -0.5199
     31 O2          0.8891   -0.7105    2.2483 O.2       1 <0>        -0.6131
     32 O3         -3.2514   -0.7039    4.1330 O.2       1 <0>        -0.6576
     33 O4         -1.2997   -1.3890    5.5632 O.2       1 <0>        -0.6482
     34 O5          2.7663   -4.2654    5.9130 O.3       1 <0>        -0.6303
     35 S1         -2.2397   -1.6774    4.4970 S.o2      1 <0>         1.5193
     36 H1         -2.4581   -5.9177    6.8441 H         1 <0>         0.1426
     37 H2         -4.7127   -6.5018    6.0186 H         1 <0>         0.1398
     38 H3         -1.3986   -3.7764    6.1505 H         1 <0>         0.1599
     39 H4         -6.1970   -5.7813    3.5259 H         1 <0>         0.0574
     40 H5         -6.8810   -5.5622    5.1465 H         1 <0>         0.0629
     41 H6          3.1075    1.5068    5.8464 H         1 <0>         0.0614
     42 H7          1.3987    1.0896    5.9845 H         1 <0>         0.0593
     43 H8          0.7490   -1.1528    7.1229 H         1 <0>         0.0841
     44 H9          2.0241   -2.2386    7.6642 H         1 <0>         0.0679
     45 H10         2.1762    0.6981    3.6915 H         1 <0>         0.0826
     46 H11         3.4796   -0.3461    4.2516 H         1 <0>         0.0383
     47 H12        -5.9766   -3.5818    2.0242 H         1 <0>         0.0556
     48 H13        -6.7526   -2.1053    2.6011 H         1 <0>         0.0415
     49 H14         0.8899   -2.8738    5.4853 H         1 <0>         0.0851
     50 H15        -7.3408   -3.2116    4.7494 H         1 <0>         0.0639
     51 H16         3.7543   -0.6771    6.8272 H         1 <0>         0.0584
     52 H17        -9.0584   -3.3693    3.0856 H         1 <0>         0.0401
     53 H18        -8.2066   -4.6557    2.2094 H         1 <0>         0.0440
     54 H19        -8.9224   -4.9882    3.7985 H         1 <0>         0.0459
     55 H20         1.9573   -0.1639    8.9779 H         1 <0>         0.0456
     56 H21         3.6313    0.3946    8.7945 H         1 <0>         0.0366
     57 H22         2.2914    1.3997    8.2091 H         1 <0>         0.0474
     58 H23         2.4156   -3.1229    2.0318 H         1 <0>         0.0800
     59 H24         1.9949   -4.6013    2.9028 H         1 <0>         0.0681
     60 H25        -0.3448   -4.4577    2.0448 H         1 <0>         0.0740
     61 H26         0.0666   -3.0218    1.1158 H         1 <0>         0.0631
     62 H27         1.4860   -5.7513    0.7413 H         1 <0>         0.0970
     63 H28         3.1484   -5.1425    0.7970 H         1 <0>         0.0725
     64 H29         0.1003   -3.1895    4.1787 H         1 <0>         0.0839
     65 H30        -4.4812   -1.7970    3.2511 H         1 <0>         0.4531
     66 H31         1.5595   -2.9487   -2.8523 H         1 <0>         0.4798
     67 H32         2.1433   -4.2863   -3.7920 H         1 <0>         0.4881
     68 H33         2.8463   -6.4791   -0.9889 H         1 <0>         0.4801
     69 H34         2.8881   -6.3264   -2.7218 H         1 <0>         0.4806
     70 H35         1.4985   -3.1480   -0.4116 H         1 <0>         0.4689
     71 H36        -1.6042   -1.6955    2.2078 H         1 <0>         0.4505
     72 H37         3.5585   -4.8388    5.8359 H         1 <0>         0.4443
@<TRIPOS>BOND
     1    1    2 ar
     2    1    3 ar
     3    2    4 ar
     4    3    6 ar
     5    4    5 ar
     6    4   10 1
     7    5    6 ar
     8    5   24 1
     9    6   35 1
    10    7   15 1
    11    7   30 2
    12    7   34 1
    13    8   23 1
    14    8   25 am
    15    8   31 2
    16    9   26 1
    17    9   27 1
    18    9   28 1
    19   10   16 1
    20   11   13 1
    21   11   17 1
    22   12   15 1
    23   12   17 1
    24   13   25 1
    25   14   16 1
    26   14   24 1
    27   15   25 1
    28   16   18 1
    29   17   19 1
    30   20   21 1
    31   20   22 1
    32   21   23 1
    33   22   28 1
    34   23   29 1
    35   29   35 1
    36   32   35 2
    37   33   35 2
    38    1   36 1
    39    2   37 1
    40    3   38 1
    41   10   39 1
    42   10   40 1
    43   11   41 1
    44   11   42 1
    45   12   43 1
    46   12   44 1
    47   13   45 1
    48   13   46 1
    49   14   47 1
    50   14   48 1
    51   15   49 1
    52   16   50 1
    53   17   51 1
    54   18   52 1
    55   18   53 1
    56   18   54 1
    57   19   55 1
    58   19   56 1
    59   19   57 1
    60   20   58 1
    61   20   59 1
    62   21   60 1
    63   21   61 1
    64   22   62 1
    65   22   63 1
    66   23   64 1
    67   24   65 1
    68   26   66 1
    69   26   67 1
    70   27   68 1
    71   27   69 1
    72   28   70 1
    73   29   71 1
    74   34   72 1
@<TRIPOS>MOLECULE
1dwc_ligand_251
   72    74     0     0     0
SMALL
USER_CHARGES

mmff94s_NoEstat = 80.38
@<TRIPOS>ATOM
      1 C1          3.3573   -6.5839   -3.9260 C.ar      1 <0>        -0.1945
      2 C2          2.9868   -6.6835   -5.2655 C.ar      1 <0>        -0.0294
      3 C3          2.7897   -5.6011   -3.1205 C.ar      1 <0>        -0.0143
      4 C4          2.0411   -5.8010   -5.8068 C.ar      1 <0>        -0.1552
      5 C5          1.4834   -4.7849   -5.0054 C.ar      1 <0>         0.3076
      6 C6          1.8576   -4.7107   -3.6559 C.ar      1 <0>        -0.4908
      7 C7          2.7064   -0.1192    2.3072 C.2       1 <0>         0.5994
      8 C8          2.9466   -1.3973   -0.6457 C.2       1 <0>         0.6462
      9 C9          7.3062   -4.5323   -1.8364 C.cat     1 <0>         0.6305
     10 C10         1.6570   -5.9189   -7.2623 C.3       1 <0>        -0.0319
     11 C11         5.2891   -2.1972    2.1884 C.3       1 <0>        -0.0918
     12 C12         5.0977    0.3338    1.8863 C.3       1 <0>        -0.0841
     13 C13         4.9490   -2.1654    0.7022 C.3       1 <0>         0.0870
     14 C14         0.2865   -3.8442   -6.9410 C.3       1 <0>         0.2023
     15 C15         3.7674   -0.0162    1.2240 C.3       1 <0>         0.0778
     16 C16         0.2994   -5.2543   -7.5401 C.3       1 <0>        -0.0746
     17 C17         5.6645   -0.8131    2.7422 C.3       1 <0>        -0.0681
     18 C18         0.0096   -5.2160   -9.0381 C.3       1 <0>        -0.0944
     19 C19         7.1799   -0.6635    2.8882 C.3       1 <0>        -0.0918
     20 C20         5.1203   -2.1076   -3.7746 C.3       1 <0>        -0.1192
     21 C21         4.5564   -1.3488   -2.5679 C.3       1 <0>        -0.0916
     22 C22         5.6479   -3.4850   -3.3924 C.3       1 <0>         0.1883
     23 C23         3.4544   -2.1251   -1.8653 C.3       1 <0>         0.1952
     24 N1          0.5438   -3.8968   -5.5143 N.pl3     1 <0>        -0.7670
     25 N2          3.8547   -1.2301    0.4039 N.am      1 <0>        -0.4509
     26 N3          8.3122   -4.4229   -0.8820 N.pl3     1 <0>        -0.8477
     27 N4          6.8952   -5.7960   -2.2464 N.pl3     1 <0>        -0.8633
     28 N5          6.7009   -3.3994   -2.3908 N.pl3     1 <0>        -0.7419
     29 N6          2.2741   -2.2179   -2.7432 N.pl3     1 <0>        -0.8860
     30 O1          2.4216    0.7685    3.0973 O.2       1 <0>        -0.5199
     31 O2          1.7818   -0.9917   -0.6208 O.2       1 <0>        -0.6131
     32 O3         -0.1165   -3.1121   -3.0880 O.2       1 <0>        -0.6576
     33 O4          1.2896   -4.0436   -1.2226 O.2       1 <0>        -0.6482
     34 O5          2.1141   -1.3382    2.2827 O.3       1 <0>        -0.6303
     35 S1          1.1775   -3.5081   -2.5659 S.o2      1 <0>         1.5193
     36 H1          4.0855   -7.2747   -3.5103 H         1 <0>         0.1426
     37 H2          3.4332   -7.4564   -5.8867 H         1 <0>         0.1398
     38 H3          3.0661   -5.5178   -2.0742 H         1 <0>         0.1599
     39 H4          2.4428   -5.4466   -7.8655 H         1 <0>         0.0574
     40 H5          1.6039   -6.9760   -7.5504 H         1 <0>         0.0629
     41 H6          4.4096   -2.5633    2.7347 H         1 <0>         0.0614
     42 H7          6.0897   -2.9223    2.3757 H         1 <0>         0.0593
     43 H8          5.8186    0.5861    1.0964 H         1 <0>         0.0841
     44 H9          4.9971    1.2321    2.5089 H         1 <0>         0.0679
     45 H10         5.8170   -1.8466    0.1132 H         1 <0>         0.0826
     46 H11         4.6769   -3.1705    0.3656 H         1 <0>         0.0383
     47 H12         1.0431   -3.2133   -7.4240 H         1 <0>         0.0556
     48 H13        -0.6867   -3.3699   -7.1100 H         1 <0>         0.0415
     49 H14         3.4560    0.8159    0.5811 H         1 <0>         0.0851
     50 H15        -0.4891   -5.8484   -7.0586 H         1 <0>         0.0639
     51 H16         5.2454   -0.7368    3.7536 H         1 <0>         0.0584
     52 H17        -1.0416   -4.9733   -9.2201 H         1 <0>         0.0401
     53 H18         0.6281   -4.4593   -9.5301 H         1 <0>         0.0440
     54 H19         0.2233   -6.1865   -9.4958 H         1 <0>         0.0459
     55 H20         7.4927   -0.8988    3.9099 H         1 <0>         0.0456
     56 H21         7.7008   -1.3400    2.2040 H         1 <0>         0.0366
     57 H22         7.4886    0.3613    2.6609 H         1 <0>         0.0474
     58 H23         4.3389   -2.2150   -4.5365 H         1 <0>         0.0800
     59 H24         5.9381   -1.5325   -4.2238 H         1 <0>         0.0681
     60 H25         4.1906   -0.3664   -2.8945 H         1 <0>         0.0740
     61 H26         5.3633   -1.1575   -1.8491 H         1 <0>         0.0631
     62 H27         6.0463   -4.0122   -4.2651 H         1 <0>         0.0970
     63 H28         4.8397   -4.0910   -2.9708 H         1 <0>         0.0725
     64 H29         3.7703   -3.1244   -1.5692 H         1 <0>         0.0839
     65 H30         0.2284   -3.1382   -4.9224 H         1 <0>         0.4531
     66 H31         8.6460   -3.5206   -0.5539 H         1 <0>         0.4798
     67 H32         8.7476   -5.2520   -0.4844 H         1 <0>         0.4881
     68 H33         6.1625   -5.9122   -2.9422 H         1 <0>         0.4801
     69 H34         7.3161   -6.6377   -1.8601 H         1 <0>         0.4806
     70 H35         7.0240   -2.4854   -2.0698 H         1 <0>         0.4689
     71 H36         1.9407   -1.3323   -3.1385 H         1 <0>         0.4505
     72 H37         1.4264   -1.4253    2.9768 H         1 <0>         0.4443
@<TRIPOS>BOND
     1    1    2 ar
     2    1    3 ar
     3    2    4 ar
     4    3    6 ar
     5    4    5 ar
     6    4   10 1
     7    5    6 ar
     8    5   24 1
     9    6   35 1
    10    7   15 1
    11    7   30 2
    12    7   34 1
    13    8   23 1
    14    8   25 am
    15    8   31 2
    16    9   26 1
    17    9   27 1
    18    9   28 1
    19   10   16 1
    20   11   13 1
    21   11   17 1
    22   12   15 1
    23   12   17 1
    24   13   25 1
    25   14   16 1
    26   14   24 1
    27   15   25 1
    28   16   18 1
    29   17   19 1
    30   20   21 1
    31   20   22 1
    32   21   23 1
    33   22   28 1
    34   23   29 1
    35   29   35 1
    36   32   35 2
    37   33   35 2
    38    1   36 1
    39    2   37 1
    40    3   38 1
    41   10   39 1
    42   10   40 1
    43   11   41 1
    44   11   42 1
    45   12   43 1
    46   12   44 1
    47   13   45 1
    48   13   46 1
    49   14   47 1
    50   14   48 1
    51   15   49 1
    52   16   50 1
    53   17   51 1
    54   18   52 1
    55   18   53 1
    56   18   54 1
    57   19   55 1
    58   19   56 1
    59   19   57 1
    60   20   58 1
    61   20   59 1
    62   21   60 1
    63   21   61 1
    64   22   62 1
    65   22   63 1
    66   23   64 1
    67   24   65 1
    68   26   66 1
    69   26   67 1
    70   27   68 1
    71   27   69 1
    72   28   70 1
    73   29   71 1
    74   34   72 1
@<TRIPOS>MOLECULE
1dwc_ligand_252
   72    74     0     0     0
SMALL
USER_CHARGES

mmff94s_NoEstat = 80.39
@<TRIPOS>ATOM
      1 C1         -1.3760   -0.0831    7.4437 C.ar      1 <0>        -0.1945
      2 C2         -1.7166    1.2052    7.0370 C.ar      1 <0>        -0.0294
      3 C3         -1.6287   -1.1649    6.6053 C.ar      1 <0>        -0.0143
      4 C4         -2.3098    1.4195    5.7846 C.ar      1 <0>        -0.1552
      5 C5         -2.5954    0.3267    4.9421 C.ar      1 <0>         0.3076
      6 C6         -2.2310   -0.9605    5.3628 C.ar      1 <0>        -0.4908
      7 C7          3.7233   -2.4449    4.7893 C.2       1 <0>         0.5994
      8 C8          0.8654   -1.4427    3.2413 C.2       1 <0>         0.6462
      9 C9         -0.0382   -5.7761   -1.6019 C.cat     1 <0>         0.6305
     10 C10        -2.6790    2.8217    5.3633 C.3       1 <0>        -0.0319
     11 C11         1.7658    0.4222    6.2790 C.3       1 <0>        -0.0918
     12 C12         2.2228   -2.0030    6.6989 C.3       1 <0>        -0.0841
     13 C13         1.9003    0.1799    4.7810 C.3       1 <0>         0.0870
     14 C14        -3.7276    1.8014    3.3273 C.3       1 <0>         0.2023
     15 C15         2.2690   -2.2605    5.1905 C.3       1 <0>         0.0778
     16 C16        -2.8246    2.9293    3.8373 C.3       1 <0>        -0.0746
     17 C17         2.6202   -0.5689    7.0736 C.3       1 <0>        -0.0681
     18 C18        -3.3763    4.2954    3.4390 C.3       1 <0>        -0.0944
     19 C19         2.4647   -0.3375    8.5754 C.3       1 <0>        -0.0918
     20 C20        -0.5404   -4.8511    2.0458 C.3       1 <0>        -0.1192
     21 C21         0.3004   -3.5693    2.0376 C.3       1 <0>        -0.0916
     22 C22        -0.1768   -5.7847    0.8978 C.3       1 <0>         0.1883
     23 C23        -0.0078   -2.6730    3.2260 C.3       1 <0>         0.1952
     24 N1         -3.1817    0.5088    3.6957 N.pl3     1 <0>        -0.7670
     25 N2          1.5999   -1.2067    4.4091 N.am      1 <0>        -0.4509
     26 N3         -0.2239   -5.1414   -2.8257 N.pl3     1 <0>        -0.8477
     27 N4          0.4773   -7.0675   -1.5794 N.pl3     1 <0>        -0.8633
     28 N5         -0.3589   -5.1430   -0.3963 N.pl3     1 <0>        -0.7419
     29 N6         -1.3760   -2.1385    3.1042 N.pl3     1 <0>        -0.8860
     30 O1          4.6129   -2.8312    5.5328 O.2       1 <0>        -0.5199
     31 O2          0.8891   -0.7105    2.2483 O.2       1 <0>        -0.6131
     32 O3         -2.1204   -3.5503    5.1256 O.2       1 <0>        -0.6576
     33 O4         -3.8433   -2.2664    3.8188 O.2       1 <0>        -0.6482
     34 O5          3.9056   -2.1185    3.4864 O.3       1 <0>        -0.6303
     35 S1         -2.5018   -2.3799    4.3583 S.o2      1 <0>         1.5193
     36 H1         -0.9105   -0.2425    8.4124 H         1 <0>         0.1426
     37 H2         -1.5128    2.0448    7.6973 H         1 <0>         0.1398
     38 H3         -1.3622   -2.1723    6.9089 H         1 <0>         0.1599
     39 H4         -3.6215    3.0926    5.8559 H         1 <0>         0.0574
     40 H5         -1.9103    3.5280    5.7005 H         1 <0>         0.0629
     41 H6          2.0669    1.4503    6.5123 H         1 <0>         0.0614
     42 H7          0.7128    0.3207    6.5714 H         1 <0>         0.0593
     43 H8          1.1978   -2.1858    7.0494 H         1 <0>         0.0841
     44 H9          2.8666   -2.7151    7.2306 H         1 <0>         0.0679
     45 H10         1.2456    0.8722    4.2416 H         1 <0>         0.0826
     46 H11         2.9258    0.3867    4.4518 H         1 <0>         0.0383
     47 H12        -4.7388    1.9004    3.7412 H         1 <0>         0.0556
     48 H13        -3.8175    1.8521    2.2365 H         1 <0>         0.0415
     49 H14         1.7884   -3.2235    4.9909 H         1 <0>         0.0851
     50 H15        -1.8320    2.8194    3.3797 H         1 <0>         0.0639
     51 H16         3.6763   -0.4106    6.8224 H         1 <0>         0.0584
     52 H17        -3.2514    4.4622    2.3649 H         1 <0>         0.0401
     53 H18        -4.4422    4.3638    3.6766 H         1 <0>         0.0440
     54 H19        -2.8521    5.0926    3.9745 H         1 <0>         0.0459
     55 H20         2.1532   -1.2591    9.0761 H         1 <0>         0.0456
     56 H21         3.4121   -0.0103    9.0142 H         1 <0>         0.0366
     57 H22         1.7112    0.4316    8.7697 H         1 <0>         0.0474
     58 H23        -0.4002   -5.3741    2.9994 H         1 <0>         0.0800
     59 H24        -1.6035   -4.5964    1.9658 H         1 <0>         0.0681
     60 H25         0.1357   -3.0322    1.0943 H         1 <0>         0.0740
     61 H26         1.3654   -3.8328    2.0643 H         1 <0>         0.0631
     62 H27        -0.7862   -6.6937    0.9190 H         1 <0>         0.0970
     63 H28         0.8744   -6.0800    0.9749 H         1 <0>         0.0725
     64 H29         0.1003   -3.1895    4.1787 H         1 <0>         0.0839
     65 H30        -3.4363   -0.3112    3.1590 H         1 <0>         0.4531
     66 H31        -0.5995   -4.1991   -2.8910 H         1 <0>         0.4798
     67 H32         0.0114   -5.6094   -3.6979 H         1 <0>         0.4881
     68 H33         0.6256   -7.5607   -0.7023 H         1 <0>         0.4801
     69 H34         0.7207   -7.5524   -2.4398 H         1 <0>         0.4806
     70 H35        -0.7354   -4.1951   -0.4451 H         1 <0>         0.4689
     71 H36        -1.4850   -1.3266    2.4871 H         1 <0>         0.4505
     72 H37         4.8398   -2.2291    3.2082 H         1 <0>         0.4443
@<TRIPOS>BOND
     1    1    2 ar
     2    1    3 ar
     3    2    4 ar
     4    3    6 ar
     5    4    5 ar
     6    4   10 1
     7    5    6 ar
     8    5   24 1
     9    6   35 1
    10    7   15 1
    11    7   30 2
    12    7   34 1
    13    8   23 1
    14    8   25 am
    15    8   31 2
    16    9   26 1
    17    9   27 1
    18    9   28 1
    19   10   16 1
    20   11   13 1
    21   11   17 1
    22   12   15 1
    23   12   17 1
    24   13   25 1
    25   14   16 1
    26   14   24 1
    27   15   25 1
    28   16   18 1
    29   17   19 1
    30   20   21 1
    31   20   22 1
    32   21   23 1
    33   22   28 1
    34   23   29 1
    35   29   35 1
    36   32   35 2
    37   33   35 2
    38    1   36 1
    39    2   37 1
    40    3   38 1
    41   10   39 1
    42   10   40 1
    43   11   41 1
    44   11   42 1
    45   12   43 1
    46   12   44 1
    47   13   45 1
    48   13   46 1
    49   14   47 1
    50   14   48 1
    51   15   49 1
    52   16   50 1
    53   17   51 1
    54   18   52 1
    55   18   53 1
    56   18   54 1
    57   19   55 1
    58   19   56 1
    59   19   57 1
    60   20   58 1
    61   20   59 1
    62   21   60 1
    63   21   61 1
    64   22   62 1
    65   22   63 1
    66   23   64 1
    67   24   65 1
    68   26   66 1
    69   26   67 1
    70   27   68 1
    71   27   69 1
    72   28   70 1
    73   29   71 1
    74   34   72 1
@<TRIPOS>MOLECULE
1dwc_ligand_253
   72    74     0     0     0
SMALL
USER_CHARGES

mmff94s_NoEstat = 80.40
@<TRIPOS>ATOM
      1 C1          0.6009   -5.4402   -0.5450 C.ar      1 <0>        -0.1945
      2 C2          1.9177   -5.1745   -0.9146 C.ar      1 <0>        -0.0294
      3 C3          0.2538   -5.4826    0.8019 C.ar      1 <0>        -0.0143
      4 C4          2.8980   -4.9531    0.0635 C.ar      1 <0>        -0.1552
      5 C5          2.5489   -4.9659    1.4281 C.ar      1 <0>         0.3076
      6 C6          1.2217   -5.2505    1.7807 C.ar      1 <0>        -0.4908
      7 C7         -0.2549    0.4306    0.6330 C.2       1 <0>         0.5994
      8 C8          0.8654   -1.4427    3.2413 C.2       1 <0>         0.6462
      9 C9         -4.4983   -0.6337    6.1614 C.cat     1 <0>         0.6305
     10 C10         4.3179   -4.6587   -0.3572 C.3       1 <0>        -0.0319
     11 C11         3.3665   -0.6443    0.6676 C.3       1 <0>        -0.0918
     12 C12         1.2181   -1.2005   -0.4907 C.3       1 <0>        -0.0841
     13 C13         2.5847   -0.2704    1.9206 C.3       1 <0>         0.0870
     14 C14         4.8245   -4.2772    2.0742 C.3       1 <0>         0.2023
     15 C15         0.4427   -0.9096    0.7969 C.3       1 <0>         0.0778
     16 C16         5.3306   -4.9077    0.7723 C.3       1 <0>        -0.0746
     17 C17         2.5288   -0.4088   -0.5919 C.3       1 <0>        -0.0681
     18 C18         5.6414   -6.3991    0.9431 C.3       1 <0>        -0.0944
     19 C19         3.3078   -0.8065   -1.8442 C.3       1 <0>        -0.0918
     20 C20        -1.0866   -2.1427    5.4567 C.3       1 <0>        -0.1192
     21 C21        -1.3133   -2.4479    3.9716 C.3       1 <0>        -0.0916
     22 C22        -2.3970   -1.9935    6.2196 C.3       1 <0>         0.1883
     23 C23        -0.0078   -2.6730    3.2260 C.3       1 <0>         0.1952
     24 N1          3.4999   -4.7575    2.4193 N.pl3     1 <0>        -0.7670
     25 N2          1.2915   -0.9578    1.9994 N.am      1 <0>        -0.4509
     26 N3         -5.2661    0.3913    5.6185 N.pl3     1 <0>        -0.8477
     27 N4         -5.0125   -1.3802    7.2161 N.pl3     1 <0>        -0.8633
     28 N5         -3.2224   -0.9282    5.6689 N.pl3     1 <0>        -0.7419
     29 N6          0.7961   -3.6905    3.9267 N.pl3     1 <0>        -0.8860
     30 O1          0.1931    1.5051    1.0045 O.2       1 <0>        -0.5199
     31 O2          1.1650   -0.9321    4.3240 O.2       1 <0>        -0.6131
     32 O3         -0.6876   -5.7475    3.4786 O.2       1 <0>        -0.6576
     33 O4          1.7036   -6.0834    4.1813 O.2       1 <0>        -0.6482
     34 O5         -1.4521    0.2749    0.0168 O.3       1 <0>        -0.6303
     35 S1          0.6998   -5.3249    3.4597 S.o2      1 <0>         1.5193
     36 H1         -0.1532   -5.6173   -1.3071 H         1 <0>         0.1426
     37 H2          2.1805   -5.1462   -1.9695 H         1 <0>         0.1398
     38 H3         -0.7676   -5.6946    1.1020 H         1 <0>         0.1599
     39 H4          4.5872   -5.2635   -1.2316 H         1 <0>         0.0574
     40 H5          4.3648   -3.6041   -0.6574 H         1 <0>         0.0629
     41 H6          4.2893   -0.0541    0.6219 H         1 <0>         0.0614
     42 H7          3.6617   -1.6999    0.7239 H         1 <0>         0.0593
     43 H8          1.4535   -2.2733   -0.5175 H         1 <0>         0.0841
     44 H9          0.5944   -0.9953   -1.3701 H         1 <0>         0.0679
     45 H10         3.1909   -0.4908    2.8053 H         1 <0>         0.0826
     46 H11         2.3782    0.8066    1.9340 H         1 <0>         0.0383
     47 H12         5.5138   -4.4958    2.8973 H         1 <0>         0.0556
     48 H13         4.7892   -3.1861    1.9666 H         1 <0>         0.0415
     49 H14        -0.3616   -1.6465    0.8882 H         1 <0>         0.0851
     50 H15         6.2762   -4.4249    0.4964 H         1 <0>         0.0639
     51 H16         2.2982    0.6607   -0.6719 H         1 <0>         0.0584
     52 H17         4.9808   -7.0038    0.3146 H         1 <0>         0.0401
     53 H18         6.6765   -6.6112    0.6589 H         1 <0>         0.0440
     54 H19         5.5005   -6.7043    1.9843 H         1 <0>         0.0459
     55 H20         2.6382   -1.2449   -2.5902 H         1 <0>         0.0456
     56 H21         3.7937    0.0674   -2.2885 H         1 <0>         0.0366
     57 H22         4.0794   -1.5424   -1.5992 H         1 <0>         0.0474
     58 H23        -0.4913   -2.9455    5.9081 H         1 <0>         0.0800
     59 H24        -0.5143   -1.2136    5.5600 H         1 <0>         0.0681
     60 H25        -1.8840   -1.6286    3.5148 H         1 <0>         0.0740
     61 H26        -1.9315   -3.3495    3.8758 H         1 <0>         0.0631
     62 H27        -2.2165   -1.7761    7.2772 H         1 <0>         0.0970
     63 H28        -2.9728   -2.9224    6.1586 H         1 <0>         0.0725
     64 H29        -0.1638   -2.9774    2.1921 H         1 <0>         0.0839
     65 H30         3.1862   -4.7016    3.3805 H         1 <0>         0.4531
     66 H31        -4.9308    0.9641    4.8486 H         1 <0>         0.4798
     67 H32        -6.1929    0.5993    5.9831 H         1 <0>         0.4881
     68 H33        -4.4781   -2.1366    7.6365 H         1 <0>         0.4801
     69 H34        -5.9375   -1.1898    7.5941 H         1 <0>         0.4806
     70 H35        -2.8722   -0.3628    4.8940 H         1 <0>         0.4689
     71 H36         1.6533   -3.3509    4.3757 H         1 <0>         0.4505
     72 H37        -1.9197    1.1298   -0.0968 H         1 <0>         0.4443
@<TRIPOS>BOND
     1    1    2 ar
     2    1    3 ar
     3    2    4 ar
     4    3    6 ar
     5    4    5 ar
     6    4   10 1
     7    5    6 ar
     8    5   24 1
     9    6   35 1
    10    7   15 1
    11    7   30 2
    12    7   34 1
    13    8   23 1
    14    8   25 am
    15    8   31 2
    16    9   26 1
    17    9   27 1
    18    9   28 1
    19   10   16 1
    20   11   13 1
    21   11   17 1
    22   12   15 1
    23   12   17 1
    24   13   25 1
    25   14   16 1
    26   14   24 1
    27   15   25 1
    28   16   18 1
    29   17   19 1
    30   20   21 1
    31   20   22 1
    32   21   23 1
    33   22   28 1
    34   23   29 1
    35   29   35 1
    36   32   35 2
    37   33   35 2
    38    1   36 1
    39    2   37 1
    40    3   38 1
    41   10   39 1
    42   10   40 1
    43   11   41 1
    44   11   42 1
    45   12   43 1
    46   12   44 1
    47   13   45 1
    48   13   46 1
    49   14   47 1
    50   14   48 1
    51   15   49 1
    52   16   50 1
    53   17   51 1
    54   18   52 1
    55   18   53 1
    56   18   54 1
    57   19   55 1
    58   19   56 1
    59   19   57 1
    60   20   58 1
    61   20   59 1
    62   21   60 1
    63   21   61 1
    64   22   62 1
    65   22   63 1
    66   23   64 1
    67   24   65 1
    68   26   66 1
    69   26   67 1
    70   27   68 1
    71   27   69 1
    72   28   70 1
    73   29   71 1
    74   34   72 1
@<TRIPOS>MOLECULE
1dwc_ligand_254
   72    74     0     0     0
SMALL
USER_CHARGES

mmff94s_NoEstat = 80.44
@<TRIPOS>ATOM
      1 C1          2.9804   -6.8364   -3.8826 C.ar      1 <0>        -0.1945
      2 C2          2.9418   -6.7056   -5.2692 C.ar      1 <0>        -0.0294
      3 C3          2.4346   -5.8419   -3.0764 C.ar      1 <0>        -0.0143
      4 C4          2.3519   -5.5783   -5.8586 C.ar      1 <0>        -0.1552
      5 C5          1.8230   -4.5534   -5.0490 C.ar      1 <0>         0.3076
      6 C6          1.8576   -4.7107   -3.6559 C.ar      1 <0>        -0.4908
      7 C7          2.4038   -0.4910    2.4030 C.2       1 <0>         0.5994
      8 C8          2.9466   -1.3973   -0.6457 C.2       1 <0>         0.6462
      9 C9          6.8021   -5.4466   -4.4355 C.cat     1 <0>         0.6305
     10 C10         2.3255   -5.4497   -7.3628 C.3       1 <0>        -0.0319
     11 C11         3.9178   -3.4419    2.3602 C.3       1 <0>        -0.0918
     12 C12         4.8012   -1.0545    2.5913 C.3       1 <0>        -0.0841
     13 C13         4.0430   -3.0960    0.8803 C.3       1 <0>         0.0870
     14 C14         1.3521   -3.1637   -7.0268 C.3       1 <0>         0.2023
     15 C15         3.6790   -0.7248    1.6100 C.3       1 <0>         0.0778
     16 C16         1.2367   -4.4677   -7.8231 C.3       1 <0>        -0.0746
     17 C17         4.6242   -2.4243    3.2705 C.3       1 <0>        -0.0681
     18 C18         1.3410   -4.2047   -9.3229 C.3       1 <0>        -0.0944
     19 C19         5.9763   -2.9527    3.7531 C.3       1 <0>        -0.0918
     20 C20         5.1203   -2.1076   -3.7746 C.3       1 <0>        -0.1192
     21 C21         4.5564   -1.3488   -2.5679 C.3       1 <0>        -0.0916
     22 C22         5.6479   -3.4850   -3.3924 C.3       1 <0>         0.1883
     23 C23         3.4544   -2.1251   -1.8653 C.3       1 <0>         0.1952
     24 N1          1.2318   -3.4255   -5.6050 N.pl3     1 <0>        -0.7670
     25 N2          3.5192   -1.7560    0.5781 N.am      1 <0>        -0.4509
     26 N3          7.3239   -6.0965   -5.5492 N.pl3     1 <0>        -0.8477
     27 N4          6.8782   -6.0650   -3.1922 N.pl3     1 <0>        -0.8633
     28 N5          6.2038   -4.1863   -4.5407 N.pl3     1 <0>        -0.7419
     29 N6          2.2741   -2.2179   -2.7432 N.pl3     1 <0>        -0.8860
     30 O1          2.3585   -0.1007    3.5602 O.2       1 <0>        -0.5199
     31 O2          2.0685   -0.5400   -0.7710 O.2       1 <0>        -0.6131
     32 O3         -0.1165   -3.1121   -3.0880 O.2       1 <0>        -0.6576
     33 O4          1.2896   -4.0436   -1.2226 O.2       1 <0>        -0.6482
     34 O5          1.3131   -0.7776    1.6510 O.3       1 <0>        -0.6303
     35 S1          1.1775   -3.5081   -2.5659 S.o2      1 <0>         1.5193
     36 H1          3.4328   -7.7153   -3.4316 H         1 <0>         0.1426
     37 H2          3.3680   -7.4891   -5.8914 H         1 <0>         0.1398
     38 H3          2.4534   -5.9358   -1.9953 H         1 <0>         0.1599
     39 H4          3.3132   -5.1073   -7.6968 H         1 <0>         0.0574
     40 H5          2.1395   -6.4300   -7.8186 H         1 <0>         0.0629
     41 H6          2.8510   -3.4591    2.6203 H         1 <0>         0.0614
     42 H7          4.2939   -4.4553    2.5428 H         1 <0>         0.0593
     43 H8          5.7524   -1.0436    2.0413 H         1 <0>         0.0841
     44 H9          4.8832   -0.2779    3.3625 H         1 <0>         0.0679
     45 H10         5.0934   -3.1114    0.5668 H         1 <0>         0.0826
     46 H11         3.5122   -3.8428    0.2819 H         1 <0>         0.0383
     47 H12         2.3133   -2.6740   -7.2264 H         1 <0>         0.0556
     48 H13         0.5637   -2.4650   -7.3281 H         1 <0>         0.0415
     49 H14         3.9015    0.2290    1.1168 H         1 <0>         0.0851
     50 H15         0.2527   -4.9144   -7.6261 H         1 <0>         0.0639
     51 H16         4.0032   -2.2947    4.1661 H         1 <0>         0.0584
     52 H17         0.4364   -3.7110   -9.6904 H         1 <0>         0.0401
     53 H18         2.1981   -3.5608   -9.5417 H         1 <0>         0.0440
     54 H19         1.4672   -5.1439   -9.8699 H         1 <0>         0.0459
     55 H20         5.8782   -3.4157    4.7396 H         1 <0>         0.0456
     56 H21         6.3665   -3.7022    3.0580 H         1 <0>         0.0366
     57 H22         6.7034   -2.1384    3.8257 H         1 <0>         0.0474
     58 H23         4.3389   -2.2150   -4.5365 H         1 <0>         0.0800
     59 H24         5.9381   -1.5325   -4.2238 H         1 <0>         0.0681
     60 H25         4.1906   -0.3664   -2.8945 H         1 <0>         0.0740
     61 H26         5.3633   -1.1575   -1.8491 H         1 <0>         0.0631
     62 H27         4.8565   -4.1061   -2.9610 H         1 <0>         0.0970
     63 H28         6.4445   -3.3867   -2.6481 H         1 <0>         0.0725
     64 H29         3.7703   -3.1244   -1.5692 H         1 <0>         0.0839
     65 H30         0.9344   -2.6826   -4.9846 H         1 <0>         0.4531
     66 H31         7.2891   -5.6840   -6.4776 H         1 <0>         0.4798
     67 H32         7.7569   -7.0132   -5.4639 H         1 <0>         0.4881
     68 H33         6.5067   -5.6181   -2.3575 H         1 <0>         0.4801
     69 H34         7.3085   -6.9804   -3.0849 H         1 <0>         0.4806
     70 H35         6.1629   -3.7578   -5.4666 H         1 <0>         0.4689
     71 H36         1.9407   -1.3323   -3.1385 H         1 <0>         0.4505
     72 H37         0.4786   -0.6346    2.1465 H         1 <0>         0.4443
@<TRIPOS>BOND
     1    1    2 ar
     2    1    3 ar
     3    2    4 ar
     4    3    6 ar
     5    4    5 ar
     6    4   10 1
     7    5    6 ar
     8    5   24 1
     9    6   35 1
    10    7   15 1
    11    7   30 2
    12    7   34 1
    13    8   23 1
    14    8   25 am
    15    8   31 2
    16    9   26 1
    17    9   27 1
    18    9   28 1
    19   10   16 1
    20   11   13 1
    21   11   17 1
    22   12   15 1
    23   12   17 1
    24   13   25 1
    25   14   16 1
    26   14   24 1
    27   15   25 1
    28   16   18 1
    29   17   19 1
    30   20   21 1
    31   20   22 1
    32   21   23 1
    33   22   28 1
    34   23   29 1
    35   29   35 1
    36   32   35 2
    37   33   35 2
    38    1   36 1
    39    2   37 1
    40    3   38 1
    41   10   39 1
    42   10   40 1
    43   11   41 1
    44   11   42 1
    45   12   43 1
    46   12   44 1
    47   13   45 1
    48   13   46 1
    49   14   47 1
    50   14   48 1
    51   15   49 1
    52   16   50 1
    53   17   51 1
    54   18   52 1
    55   18   53 1
    56   18   54 1
    57   19   55 1
    58   19   56 1
    59   19   57 1
    60   20   58 1
    61   20   59 1
    62   21   60 1
    63   21   61 1
    64   22   62 1
    65   22   63 1
    66   23   64 1
    67   24   65 1
    68   26   66 1
    69   26   67 1
    70   27   68 1
    71   27   69 1
    72   28   70 1
    73   29   71 1
    74   34   72 1
@<TRIPOS>MOLECULE
1dwc_ligand_255
   72    74     0     0     0
SMALL
USER_CHARGES

mmff94s_NoEstat = 80.47
@<TRIPOS>ATOM
      1 C1         -3.1525   -6.1500    2.7247 C.ar      1 <0>        -0.1945
      2 C2         -3.7220   -6.2210    3.9943 C.ar      1 <0>        -0.0294
      3 C3         -1.7958   -5.8721    2.5879 C.ar      1 <0>        -0.0143
      4 C4         -2.9366   -6.0100    5.1368 C.ar      1 <0>        -0.1552
      5 C5         -1.5569   -5.7567    5.0078 C.ar      1 <0>         0.3076
      6 C6         -1.0052   -5.6737    3.7210 C.ar      1 <0>        -0.4908
      7 C7          1.0326   -1.5891   -0.1526 C.2       1 <0>         0.5994
      8 C8          0.8654   -1.4427    3.2413 C.2       1 <0>         0.6462
      9 C9         -2.8213    0.6638    5.9816 C.cat     1 <0>         0.6305
     10 C10        -3.5704   -6.0992    6.5042 C.3       1 <0>        -0.0319
     11 C11         4.0928   -0.4819    1.7658 C.3       1 <0>        -0.0918
     12 C12         3.2369   -2.4756    0.5172 C.3       1 <0>        -0.0841
     13 C13         2.6673   -0.1389    2.1793 C.3       1 <0>         0.0870
     14 C14        -1.2626   -5.8045    7.4534 C.3       1 <0>         0.2023
     15 C15         1.8171   -2.1794    1.0075 C.3       1 <0>         0.0778
     16 C16        -2.7344   -5.3990    7.5879 C.3       1 <0>        -0.0746
     17 C17         4.1123   -1.2187    0.4240 C.3       1 <0>        -0.0681
     18 C18        -2.9130   -3.8769    7.5534 C.3       1 <0>        -0.0944
     19 C19         5.5413   -1.5810    0.0243 C.3       1 <0>        -0.0918
     20 C20        -2.1115   -1.2711    3.3990 C.3       1 <0>        -0.1192
     21 C21        -1.3133   -2.4479    3.9716 C.3       1 <0>        -0.0916
     22 C22        -3.3821   -0.9970    4.1941 C.3       1 <0>         0.1883
     23 C23        -0.0078   -2.6730    3.2260 C.3       1 <0>         0.1952
     24 N1         -0.7555   -5.5363    6.1210 N.pl3     1 <0>        -0.7670
     25 N2          1.7920   -1.3156    2.2000 N.am      1 <0>        -0.4509
     26 N3         -2.5447    0.9705    7.3098 N.pl3     1 <0>        -0.8477
     27 N4         -2.8329    1.6855    5.0381 N.pl3     1 <0>        -0.8633
     28 N5         -3.0875   -0.6486    5.5765 N.pl3     1 <0>        -0.7419
     29 N6          0.7961   -3.6905    3.9267 N.pl3     1 <0>        -0.8860
     30 O1          0.8941   -0.3947   -0.3706 O.2       1 <0>        -0.5199
     31 O2          0.7326   -0.6231    4.1542 O.2       1 <0>        -0.6131
     32 O3          1.4689   -6.1338    4.3859 O.2       1 <0>        -0.6576
     33 O4          0.9378   -5.4244    2.0325 O.2       1 <0>        -0.6482
     34 O5          0.4997   -2.5717   -0.9193 O.3       1 <0>        -0.6303
     35 S1          0.6998   -5.3249    3.4597 S.o2      1 <0>         1.5193
     36 H1         -3.7672   -6.3081    1.8427 H         1 <0>         0.1426
     37 H2         -4.7835   -6.4358    4.0916 H         1 <0>         0.1398
     38 H3         -1.3423   -5.8084    1.6037 H         1 <0>         0.1599
     39 H4         -4.5789   -5.6685    6.4833 H         1 <0>         0.0574
     40 H5         -3.6702   -7.1626    6.7568 H         1 <0>         0.0629
     41 H6          4.6862    0.4377    1.6990 H         1 <0>         0.0614
     42 H7          4.5556   -1.1085    2.5390 H         1 <0>         0.0593
     43 H8          3.7056   -3.1781    1.2199 H         1 <0>         0.0841
     44 H9          3.2100   -2.9795   -0.4573 H         1 <0>         0.0679
     45 H10         2.6813    0.3462    3.1608 H         1 <0>         0.0826
     46 H11         2.2276    0.5771    1.4744 H         1 <0>         0.0383
     47 H12        -0.6505   -5.2688    8.1875 H         1 <0>         0.0556
     48 H13        -1.1538   -6.8753    7.6654 H         1 <0>         0.0415
     49 H14         1.3264   -3.1308    1.2358 H         1 <0>         0.0851
     50 H15        -3.0985   -5.7306    8.5681 H         1 <0>         0.0639
     51 H16         3.7098   -0.5563   -0.3523 H         1 <0>         0.0584
     52 H17        -3.4985   -3.5784    6.6787 H         1 <0>         0.0401
     53 H18        -3.4337   -3.5305    8.4511 H         1 <0>         0.0440
     54 H19        -1.9410   -3.3769    7.5042 H         1 <0>         0.0459
     55 H20         5.5642   -2.5489   -0.4852 H         1 <0>         0.0456
     56 H21         5.9547   -0.8262   -0.6513 H         1 <0>         0.0366
     57 H22         6.1838   -1.6417    0.9078 H         1 <0>         0.0474
     58 H23        -1.4838   -0.3719    3.3933 H         1 <0>         0.0800
     59 H24        -2.3885   -1.4831    2.3599 H         1 <0>         0.0681
     60 H25        -1.9335   -3.3536    3.9489 H         1 <0>         0.0740
     61 H26        -1.0849   -2.2531    5.0271 H         1 <0>         0.0631
     62 H27        -4.0449   -1.8681    4.1933 H         1 <0>         0.0970
     63 H28        -3.9265   -0.1572    3.7507 H         1 <0>         0.0725
     64 H29        -0.1638   -2.9774    2.1921 H         1 <0>         0.0839
     65 H30         0.2422   -5.4334    5.9808 H         1 <0>         0.4531
     66 H31        -2.5273    0.2572    8.0338 H         1 <0>         0.4798
     67 H32        -2.3528    1.9278    7.5960 H         1 <0>         0.4881
     68 H33        -3.0315    1.4965    4.0587 H         1 <0>         0.4801
     69 H34        -2.6420    2.6489    5.3029 H         1 <0>         0.4806
     70 H35        -3.0717   -1.3769    6.2920 H         1 <0>         0.4689
     71 H36         1.6533   -3.3509    4.3757 H         1 <0>         0.4505
     72 H37        -0.0129   -2.2104   -1.6737 H         1 <0>         0.4443
@<TRIPOS>BOND
     1    1    2 ar
     2    1    3 ar
     3    2    4 ar
     4    3    6 ar
     5    4    5 ar
     6    4   10 1
     7    5    6 ar
     8    5   24 1
     9    6   35 1
    10    7   15 1
    11    7   30 2
    12    7   34 1
    13    8   23 1
    14    8   25 am
    15    8   31 2
    16    9   26 1
    17    9   27 1
    18    9   28 1
    19   10   16 1
    20   11   13 1
    21   11   17 1
    22   12   15 1
    23   12   17 1
    24   13   25 1
    25   14   16 1
    26   14   24 1
    27   15   25 1
    28   16   18 1
    29   17   19 1
    30   20   21 1
    31   20   22 1
    32   21   23 1
    33   22   28 1
    34   23   29 1
    35   29   35 1
    36   32   35 2
    37   33   35 2
    38    1   36 1
    39    2   37 1
    40    3   38 1
    41   10   39 1
    42   10   40 1
    43   11   41 1
    44   11   42 1
    45   12   43 1
    46   12   44 1
    47   13   45 1
    48   13   46 1
    49   14   47 1
    50   14   48 1
    51   15   49 1
    52   16   50 1
    53   17   51 1
    54   18   52 1
    55   18   53 1
    56   18   54 1
    57   19   55 1
    58   19   56 1
    59   19   57 1
    60   20   58 1
    61   20   59 1
    62   21   60 1
    63   21   61 1
    64   22   62 1
    65   22   63 1
    66   23   64 1
    67   24   65 1
    68   26   66 1
    69   26   67 1
    70   27   68 1
    71   27   69 1
    72   28   70 1
    73   29   71 1
    74   34   72 1
@<TRIPOS>MOLECULE
1dwc_ligand_256
   72    74     0     0     0
SMALL
USER_CHARGES

mmff94s_NoEstat = 80.49
@<TRIPOS>ATOM
      1 C1         -0.5523    1.6744    5.9041 C.ar      1 <0>        -0.1945
      2 C2         -0.9694    2.6552    5.0066 C.ar      1 <0>        -0.0294
      3 C3         -0.9569    0.3546    5.7269 C.ar      1 <0>        -0.0143
      4 C4         -1.7923    2.3195    3.9220 C.ar      1 <0>        -0.1552
      5 C5         -2.2299    0.9909    3.7521 C.ar      1 <0>         0.3076
      6 C6         -1.7869    0.0155    4.6571 C.ar      1 <0>        -0.4908
      7 C7          3.5686   -3.4379    3.7704 C.2       1 <0>         0.5994
      8 C8          0.8654   -1.4427    3.2413 C.2       1 <0>         0.6462
      9 C9         -4.2197   -5.7773    1.9086 C.cat     1 <0>         0.6305
     10 C10        -2.2407    3.3967    2.9635 C.3       1 <0>        -0.0319
     11 C11         3.4440   -0.0674    5.4719 C.3       1 <0>        -0.0918
     12 C12         3.1682   -2.4952    6.0163 C.3       1 <0>        -0.0841
     13 C13         2.9000   -0.3276    4.0730 C.3       1 <0>         0.0870
     14 C14        -3.6561    1.6489    1.8554 C.3       1 <0>         0.2023
     15 C15         2.5392   -2.7371    4.6417 C.3       1 <0>         0.0778
     16 C16        -2.6763    2.8021    1.6150 C.3       1 <0>        -0.0746
     17 C17         4.1435   -1.3104    6.0281 C.3       1 <0>        -0.0681
     18 C18        -3.2993    3.8738    0.7246 C.3       1 <0>        -0.0944
     19 C19         4.6673   -1.0527    7.4396 C.3       1 <0>        -0.0918
     20 C20        -0.5404   -4.8511    2.0458 C.3       1 <0>        -0.1192
     21 C21         0.3004   -3.5693    2.0376 C.3       1 <0>        -0.0916
     22 C22        -2.0309   -4.5619    1.9177 C.3       1 <0>         0.1883
     23 C23        -0.0078   -2.6730    3.2260 C.3       1 <0>         0.1952
     24 N1         -3.0449    0.6290    2.6865 N.pl3     1 <0>        -0.7670
     25 N2          2.0252   -1.5038    4.0223 N.am      1 <0>        -0.4509
     26 N3         -4.9516   -6.9597    1.9407 N.pl3     1 <0>        -0.8477
     27 N4         -4.8949   -4.5639    1.8318 N.pl3     1 <0>        -0.8633
     28 N5         -2.8214   -5.7840    1.9521 N.pl3     1 <0>        -0.7419
     29 N6         -1.3760   -2.1385    3.1042 N.pl3     1 <0>        -0.8860
     30 O1          4.1316   -4.4849    4.0536 O.2       1 <0>        -0.5199
     31 O2          0.5240   -0.4555    2.5844 O.2       1 <0>        -0.6131
     32 O3         -1.7140   -2.3916    5.6449 O.2       1 <0>        -0.6576
     33 O4         -3.6601   -1.7094    4.2056 O.2       1 <0>        -0.6482
     34 O5          3.7837   -2.7404    2.6283 O.3       1 <0>        -0.6303
     35 S1         -2.2397   -1.6774    4.4970 S.o2      1 <0>         1.5193
     36 H1          0.0908    1.9391    6.7389 H         1 <0>         0.1426
     37 H2         -0.6459    3.6833    5.1512 H         1 <0>         0.1398
     38 H3         -0.6333   -0.4189    6.4161 H         1 <0>         0.1599
     39 H4         -3.0724    3.9441    3.4249 H         1 <0>         0.0574
     40 H5         -1.4243    4.1094    2.7937 H         1 <0>         0.0629
     41 H6          4.1435    0.7764    5.4419 H         1 <0>         0.0614
     42 H7          2.6191    0.2214    6.1357 H         1 <0>         0.0593
     43 H8          2.3618   -2.2928    6.7345 H         1 <0>         0.0841
     44 H9          3.6813   -3.3988    6.3690 H         1 <0>         0.0679
     45 H10         2.3679    0.5618    3.7197 H         1 <0>         0.0826
     46 H11         3.7232   -0.5081    3.3711 H         1 <0>         0.0383
     47 H12        -4.5696    2.0142    2.3409 H         1 <0>         0.0556
     48 H13        -3.9536    1.1996    0.9014 H         1 <0>         0.0415
     49 H14         1.7211   -3.4548    4.7590 H         1 <0>         0.0851
     50 H15        -1.7894    2.4087    1.1001 H         1 <0>         0.0639
     51 H16         5.0063   -1.5479    5.3937 H         1 <0>         0.0584
     52 H17        -3.3831    3.5161   -0.3060 H         1 <0>         0.0401
     53 H18        -4.3001    4.1356    1.0809 H         1 <0>         0.0440
     54 H19        -2.6852    4.7793    0.7260 H         1 <0>         0.0459
     55 H20         4.2777   -1.8006    8.1367 H         1 <0>         0.0456
     56 H21         5.7602   -1.1000    7.4588 H         1 <0>         0.0366
     57 H22         4.3590   -0.0627    7.7891 H         1 <0>         0.0474
     58 H23        -0.2231   -5.5016    1.2219 H         1 <0>         0.0800
     59 H24        -0.3698   -5.3992    2.9795 H         1 <0>         0.0681
     60 H25         0.1357   -3.0322    1.0943 H         1 <0>         0.0740
     61 H26         1.3654   -3.8328    2.0643 H         1 <0>         0.0631
     62 H27        -2.2529   -4.0356    0.9839 H         1 <0>         0.0970
     63 H28        -2.3619   -3.9310    2.7487 H         1 <0>         0.0725
     64 H29         0.1003   -3.1895    4.1787 H         1 <0>         0.0839
     65 H30        -3.3945   -0.3205    2.6487 H         1 <0>         0.4531
     66 H31        -4.5011   -7.8694    1.9946 H         1 <0>         0.4798
     67 H32        -5.9684   -6.9459    1.9081 H         1 <0>         0.4881
     68 H33        -4.3910   -3.6808    1.8064 H         1 <0>         0.4801
     69 H34        -5.9110   -4.5279    1.8000 H         1 <0>         0.4806
     70 H35        -2.3541   -6.6901    2.0084 H         1 <0>         0.4689
     71 H36        -1.6042   -1.6955    2.2078 H         1 <0>         0.4505
     72 H37         4.4476   -3.1762    2.0524 H         1 <0>         0.4443
@<TRIPOS>BOND
     1    1    2 ar
     2    1    3 ar
     3    2    4 ar
     4    3    6 ar
     5    4    5 ar
     6    4   10 1
     7    5    6 ar
     8    5   24 1
     9    6   35 1
    10    7   15 1
    11    7   30 2
    12    7   34 1
    13    8   23 1
    14    8   25 am
    15    8   31 2
    16    9   26 1
    17    9   27 1
    18    9   28 1
    19   10   16 1
    20   11   13 1
    21   11   17 1
    22   12   15 1
    23   12   17 1
    24   13   25 1
    25   14   16 1
    26   14   24 1
    27   15   25 1
    28   16   18 1
    29   17   19 1
    30   20   21 1
    31   20   22 1
    32   21   23 1
    33   22   28 1
    34   23   29 1
    35   29   35 1
    36   32   35 2
    37   33   35 2
    38    1   36 1
    39    2   37 1
    40    3   38 1
    41   10   39 1
    42   10   40 1
    43   11   41 1
    44   11   42 1
    45   12   43 1
    46   12   44 1
    47   13   45 1
    48   13   46 1
    49   14   47 1
    50   14   48 1
    51   15   49 1
    52   16   50 1
    53   17   51 1
    54   18   52 1
    55   18   53 1
    56   18   54 1
    57   19   55 1
    58   19   56 1
    59   19   57 1
    60   20   58 1
    61   20   59 1
    62   21   60 1
    63   21   61 1
    64   22   62 1
    65   22   63 1
    66   23   64 1
    67   24   65 1
    68   26   66 1
    69   26   67 1
    70   27   68 1
    71   27   69 1
    72   28   70 1
    73   29   71 1
    74   34   72 1
@<TRIPOS>MOLECULE
1dwc_ligand_257
   72    74     0     0     0
SMALL
USER_CHARGES

mmff94s_NoEstat = 80.51
@<TRIPOS>ATOM
      1 C1          7.0566   -1.8909   -5.1883 C.ar      1 <0>        -0.1945
      2 C2          7.7758   -3.0566   -5.4429 C.ar      1 <0>        -0.0294
      3 C3          6.5672   -1.6434   -3.9093 C.ar      1 <0>        -0.0143
      4 C4          8.0069   -3.9856   -4.4181 C.ar      1 <0>        -0.1552
      5 C5          7.5396   -3.7287   -3.1142 C.ar      1 <0>         0.3076
      6 C6          6.8044   -2.5574   -2.8813 C.ar      1 <0>        -0.4908
      7 C7          3.7685    1.5685    0.3235 C.2       1 <0>         0.5994
      8 C8          2.9466   -1.3973   -0.6457 C.2       1 <0>         0.6462
      9 C9          0.3678   -6.6076   -3.6872 C.cat     1 <0>         0.6305
     10 C10         8.7955   -5.2391   -4.7118 C.3       1 <0>        -0.0319
     11 C11         1.8611    1.7587   -2.3835 C.3       1 <0>        -0.0918
     12 C12         1.3294    1.8958    0.1130 C.3       1 <0>        -0.0841
     13 C13         1.7075    0.2690   -2.0963 C.3       1 <0>         0.0870
     14 C14         8.6599   -5.7478   -2.2549 C.3       1 <0>         0.2023
     15 C15         2.4335    0.8481    0.2329 C.3       1 <0>         0.0778
     16 C16         8.5627   -6.3405   -3.6647 C.3       1 <0>        -0.0746
     17 C17         1.3508    2.6418   -1.2332 C.3       1 <0>        -0.0681
     18 C18         7.2327   -7.0694   -3.8876 C.3       1 <0>        -0.0944
     19 C19        -0.0342    3.2135   -1.5417 C.3       1 <0>        -0.0918
     20 C20         2.8965   -3.7759   -3.7050 C.3       1 <0>        -0.1192
     21 C21         2.4114   -3.0756   -2.4306 C.3       1 <0>        -0.0916
     22 C22         1.8232   -4.6695   -4.3142 C.3       1 <0>         0.1883
     23 C23         3.4544   -2.1251   -1.8653 C.3       1 <0>         0.1952
     24 N1          7.7469   -4.6339   -2.0809 N.pl3     1 <0>        -0.7670
     25 N2          2.3949   -0.1309   -0.8598 N.am      1 <0>        -0.4509
     26 N3         -0.0297   -7.5831   -2.7787 N.pl3     1 <0>        -0.8477
     27 N4         -0.2625   -6.5368   -4.9248 N.pl3     1 <0>        -0.8633
     28 N5          1.3862   -5.6985   -3.3816 N.pl3     1 <0>        -0.7419
     29 N6          4.6097   -2.8934   -1.3678 N.pl3     1 <0>        -0.8860
     30 O1          4.7113    1.3972   -0.4350 O.2       1 <0>        -0.5199
     31 O2          3.0377   -1.9312    0.4627 O.2       1 <0>        -0.6131
     32 O3          6.9529   -2.8526   -0.2994 O.2       1 <0>        -0.6576
     33 O4          5.9925   -0.7285   -1.2427 O.2       1 <0>        -0.6482
     34 O5          3.7765    2.4323    1.3680 O.3       1 <0>        -0.6303
     35 S1          6.1490   -2.1694   -1.2948 S.o2      1 <0>         1.5193
     36 H1          6.8751   -1.1776   -5.9878 H         1 <0>         0.1426
     37 H2          8.1519   -3.2432   -6.4460 H         1 <0>         0.1398
     38 H3          6.0004   -0.7415   -3.7005 H         1 <0>         0.1599
     39 H4          8.5429   -5.6209   -5.7085 H         1 <0>         0.0574
     40 H5          9.8593   -4.9693   -4.7209 H         1 <0>         0.0629
     41 H6          2.9275    1.9711   -2.5379 H         1 <0>         0.0614
     42 H7          1.3587    2.0144   -3.3237 H         1 <0>         0.0593
     43 H8          0.3614    1.3894    0.2306 H         1 <0>         0.0841
     44 H9          1.3961    2.6253    0.9302 H         1 <0>         0.0679
     45 H10         0.6501    0.0044   -1.9791 H         1 <0>         0.0826
     46 H11         2.0979   -0.3101   -2.9388 H         1 <0>         0.0383
     47 H12         8.4420   -6.5143   -1.5028 H         1 <0>         0.0556
     48 H13         9.6836   -5.3993   -2.0705 H         1 <0>         0.0415
     49 H14         2.3194    0.3128    1.1832 H         1 <0>         0.0851
     50 H15         9.3512   -7.0944   -3.7804 H         1 <0>         0.0639
     51 H16         2.0299    3.4998   -1.1486 H         1 <0>         0.0584
     52 H17         6.6492   -6.5740   -4.6693 H         1 <0>         0.0401
     53 H18         7.4085   -8.1053   -4.1930 H         1 <0>         0.0440
     54 H19         6.6400   -7.0772   -2.9680 H         1 <0>         0.0459
     55 H20         0.0409    4.0371   -2.2580 H         1 <0>         0.0456
     56 H21        -0.6818    2.4425   -1.9698 H         1 <0>         0.0366
     57 H22        -0.5055    3.5921   -0.6298 H         1 <0>         0.0474
     58 H23         3.2051   -3.0234   -4.4407 H         1 <0>         0.0800
     59 H24         3.7751   -4.3904   -3.4776 H         1 <0>         0.0681
     60 H25         2.1309   -3.8309   -1.6847 H         1 <0>         0.0740
     61 H26         1.5011   -2.5046   -2.6534 H         1 <0>         0.0631
     62 H27         2.1863   -5.1610   -5.2224 H         1 <0>         0.0970
     63 H28         0.9460   -4.0714   -4.5808 H         1 <0>         0.0725
     64 H29         3.7902   -1.3903   -2.5956 H         1 <0>         0.0839
     65 H30         7.4582   -4.3697   -1.1469 H         1 <0>         0.4531
     66 H31         0.4035   -7.6739   -1.8636 H         1 <0>         0.4798
     67 H32        -0.7709   -8.2408   -3.0092 H         1 <0>         0.4881
     68 H33         0.0033   -5.8361   -5.6125 H         1 <0>         0.4801
     69 H34        -1.0069   -7.1835   -5.1744 H         1 <0>         0.4806
     70 H35         1.8300   -5.7754   -2.4652 H         1 <0>         0.4689
     71 H36         4.3912   -3.6637   -0.7270 H         1 <0>         0.4505
     72 H37         4.6318    2.9065    1.4447 H         1 <0>         0.4443
@<TRIPOS>BOND
     1    1    2 ar
     2    1    3 ar
     3    2    4 ar
     4    3    6 ar
     5    4    5 ar
     6    4   10 1
     7    5    6 ar
     8    5   24 1
     9    6   35 1
    10    7   15 1
    11    7   30 2
    12    7   34 1
    13    8   23 1
    14    8   25 am
    15    8   31 2
    16    9   26 1
    17    9   27 1
    18    9   28 1
    19   10   16 1
    20   11   13 1
    21   11   17 1
    22   12   15 1
    23   12   17 1
    24   13   25 1
    25   14   16 1
    26   14   24 1
    27   15   25 1
    28   16   18 1
    29   17   19 1
    30   20   21 1
    31   20   22 1
    32   21   23 1
    33   22   28 1
    34   23   29 1
    35   29   35 1
    36   32   35 2
    37   33   35 2
    38    1   36 1
    39    2   37 1
    40    3   38 1
    41   10   39 1
    42   10   40 1
    43   11   41 1
    44   11   42 1
    45   12   43 1
    46   12   44 1
    47   13   45 1
    48   13   46 1
    49   14   47 1
    50   14   48 1
    51   15   49 1
    52   16   50 1
    53   17   51 1
    54   18   52 1
    55   18   53 1
    56   18   54 1
    57   19   55 1
    58   19   56 1
    59   19   57 1
    60   20   58 1
    61   20   59 1
    62   21   60 1
    63   21   61 1
    64   22   62 1
    65   22   63 1
    66   23   64 1
    67   24   65 1
    68   26   66 1
    69   26   67 1
    70   27   68 1
    71   27   69 1
    72   28   70 1
    73   29   71 1
    74   34   72 1
@<TRIPOS>MOLECULE
1dwc_ligand_258
   72    74     0     0     0
SMALL
USER_CHARGES

mmff94s_NoEstat = 80.52
@<TRIPOS>ATOM
      1 C1         -1.6990   -6.3363    0.7867 C.ar      1 <0>        -0.1945
      2 C2         -2.5886   -6.9109    1.6920 C.ar      1 <0>        -0.0294
      3 C3         -0.5076   -5.7805    1.2430 C.ar      1 <0>        -0.0143
      4 C4         -2.2925   -6.9295    3.0627 C.ar      1 <0>        -0.1552
      5 C5         -1.0757   -6.3947    3.5292 C.ar      1 <0>         0.3076
      6 C6         -0.2004   -5.8068    2.6044 C.ar      1 <0>        -0.4908
      7 C7         -1.2359   -0.6984    0.6725 C.2       1 <0>         0.5994
      8 C8          0.8654   -1.4427    3.2413 C.2       1 <0>         0.6462
      9 C9         -4.4983   -0.6337    6.1614 C.cat     1 <0>         0.6305
     10 C10        -3.2655   -7.5641    4.0272 C.3       1 <0>        -0.0319
     11 C11         1.8315    1.4466    1.1834 C.3       1 <0>        -0.0918
     12 C12         0.9831   -0.3423   -0.3484 C.3       1 <0>        -0.0841
     13 C13         1.0260    0.8397    2.3251 C.3       1 <0>         0.0870
     14 C14        -1.5546   -7.1585    5.8221 C.3       1 <0>         0.2023
     15 C15         0.2462   -1.0009    0.8207 C.3       1 <0>         0.0778
     16 C16        -3.0463   -7.0996    5.4762 C.3       1 <0>        -0.0746
     17 C17         1.1635    1.1707   -0.1661 C.3       1 <0>        -0.0681
     18 C18        -3.6360   -5.7068    5.7256 C.3       1 <0>        -0.0944
     19 C19         1.9862    1.7609   -1.3098 C.3       1 <0>        -0.0918
     20 C20        -1.0866   -2.1427    5.4567 C.3       1 <0>        -0.1192
     21 C21        -1.3133   -2.4479    3.9716 C.3       1 <0>        -0.0916
     22 C22        -2.3970   -1.9935    6.2196 C.3       1 <0>         0.1883
     23 C23        -0.0078   -2.6730    3.2260 C.3       1 <0>         0.1952
     24 N1         -0.7588   -6.3922    4.8818 N.pl3     1 <0>        -0.7670
     25 N2          0.7744   -0.5925    2.1333 N.am      1 <0>        -0.4509
     26 N3         -5.2661    0.3913    5.6185 N.pl3     1 <0>        -0.8477
     27 N4         -5.0125   -1.3802    7.2161 N.pl3     1 <0>        -0.8633
     28 N5         -3.2224   -0.9282    5.6689 N.pl3     1 <0>        -0.7419
     29 N6          0.7961   -3.6905    3.9267 N.pl3     1 <0>        -0.8860
     30 O1         -1.9314   -0.1635    1.5231 O.2       1 <0>        -0.5199
     31 O2          1.6103   -1.2468    4.2054 O.2       1 <0>        -0.6131
     32 O3          1.9670   -5.9819    4.0350 O.2       1 <0>        -0.6576
     33 O4          2.0121   -4.6764    1.8861 O.2       1 <0>        -0.6482
     34 O5         -1.6891   -1.1064   -0.5380 O.3       1 <0>        -0.6303
     35 S1          1.3247   -5.0804    3.0977 S.o2      1 <0>         1.5193
     36 H1         -1.9365   -6.3191   -0.2735 H         1 <0>         0.1426
     37 H2         -3.5185   -7.3403    1.3269 H         1 <0>         0.1398
     38 H3          0.1904   -5.3247    0.5478 H         1 <0>         0.1599
     39 H4         -4.2967   -7.3458    3.7237 H         1 <0>         0.0574
     40 H5         -3.1279   -8.6516    3.9724 H         1 <0>         0.0629
     41 H6          1.9320    2.5271    1.3399 H         1 <0>         0.0614
     42 H7          2.8448    1.0248    1.1881 H         1 <0>         0.0593
     43 H8          1.9753   -0.8057   -0.4365 H         1 <0>         0.0841
     44 H9          0.4607   -0.5403   -1.2930 H         1 <0>         0.0679
     45 H10         1.5496    1.0140    3.2709 H         1 <0>         0.0826
     46 H11         0.0484    1.3304    2.4051 H         1 <0>         0.0383
     47 H12        -1.3823   -6.7782    6.8351 H         1 <0>         0.0556
     48 H13        -1.2132   -8.2010    5.8085 H         1 <0>         0.0415
     49 H14         0.3330   -2.0869    0.7143 H         1 <0>         0.0851
     50 H15        -3.5850   -7.7865    6.1406 H         1 <0>         0.0639
     51 H16         0.1795    1.6553   -0.1825 H         1 <0>         0.0584
     52 H17        -3.9809   -5.2618    4.7875 H         1 <0>         0.0401
     53 H18        -4.4862   -5.7664    6.4117 H         1 <0>         0.0440
     54 H19        -2.8843   -5.0443    6.1651 H         1 <0>         0.0459
     55 H20         1.9407    1.1129   -2.1902 H         1 <0>         0.0456
     56 H21         1.6048    2.7479   -1.5883 H         1 <0>         0.0366
     57 H22         3.0342    1.8673   -1.0143 H         1 <0>         0.0474
     58 H23        -0.4913   -2.9455    5.9081 H         1 <0>         0.0800
     59 H24        -0.5143   -1.2136    5.5600 H         1 <0>         0.0681
     60 H25        -1.8840   -1.6286    3.5148 H         1 <0>         0.0740
     61 H26        -1.9315   -3.3495    3.8758 H         1 <0>         0.0631
     62 H27        -2.2165   -1.7761    7.2772 H         1 <0>         0.0970
     63 H28        -2.9728   -2.9224    6.1586 H         1 <0>         0.0725
     64 H29        -0.1638   -2.9774    2.1921 H         1 <0>         0.0839
     65 H30         0.1588   -6.0654    5.1587 H         1 <0>         0.4531
     66 H31        -4.9308    0.9641    4.8486 H         1 <0>         0.4798
     67 H32        -6.1929    0.5993    5.9831 H         1 <0>         0.4881
     68 H33        -4.4781   -2.1366    7.6365 H         1 <0>         0.4801
     69 H34        -5.9375   -1.1898    7.5941 H         1 <0>         0.4806
     70 H35        -2.8722   -0.3628    4.8940 H         1 <0>         0.4689
     71 H36         1.3354   -3.3564    4.7325 H         1 <0>         0.4505
     72 H37        -2.6456   -0.9214   -0.6525 H         1 <0>         0.4443
@<TRIPOS>BOND
     1    1    2 ar
     2    1    3 ar
     3    2    4 ar
     4    3    6 ar
     5    4    5 ar
     6    4   10 1
     7    5    6 ar
     8    5   24 1
     9    6   35 1
    10    7   15 1
    11    7   30 2
    12    7   34 1
    13    8   23 1
    14    8   25 am
    15    8   31 2
    16    9   26 1
    17    9   27 1
    18    9   28 1
    19   10   16 1
    20   11   13 1
    21   11   17 1
    22   12   15 1
    23   12   17 1
    24   13   25 1
    25   14   16 1
    26   14   24 1
    27   15   25 1
    28   16   18 1
    29   17   19 1
    30   20   21 1
    31   20   22 1
    32   21   23 1
    33   22   28 1
    34   23   29 1
    35   29   35 1
    36   32   35 2
    37   33   35 2
    38    1   36 1
    39    2   37 1
    40    3   38 1
    41   10   39 1
    42   10   40 1
    43   11   41 1
    44   11   42 1
    45   12   43 1
    46   12   44 1
    47   13   45 1
    48   13   46 1
    49   14   47 1
    50   14   48 1
    51   15   49 1
    52   16   50 1
    53   17   51 1
    54   18   52 1
    55   18   53 1
    56   18   54 1
    57   19   55 1
    58   19   56 1
    59   19   57 1
    60   20   58 1
    61   20   59 1
    62   21   60 1
    63   21   61 1
    64   22   62 1
    65   22   63 1
    66   23   64 1
    67   24   65 1
    68   26   66 1
    69   26   67 1
    70   27   68 1
    71   27   69 1
    72   28   70 1
    73   29   71 1
    74   34   72 1
@<TRIPOS>MOLECULE
1dwc_ligand_259
   72    74     0     0     0
SMALL
USER_CHARGES

mmff94s_NoEstat = 80.53
@<TRIPOS>ATOM
      1 C1         -2.2959   -2.3538    7.8119 C.ar      1 <0>        -0.1945
      2 C2         -2.6720   -1.0237    7.9869 C.ar      1 <0>        -0.0294
      3 C3         -2.3070   -2.9163    6.5390 C.ar      1 <0>        -0.0143
      4 C4         -3.0584   -0.2458    6.8861 C.ar      1 <0>        -0.1552
      5 C5         -3.1002   -0.8160    5.5982 C.ar      1 <0>         0.3076
      6 C6         -2.7033   -2.1518    5.4404 C.ar      1 <0>        -0.4908
      7 C7          3.5686   -3.4379    3.7704 C.2       1 <0>         0.5994
      8 C8          0.8654   -1.4427    3.2413 C.2       1 <0>         0.6462
      9 C9          1.6156   -7.3323    1.7100 C.cat     1 <0>         0.6305
     10 C10        -3.4700    1.1919    7.0953 C.3       1 <0>        -0.0319
     11 C11         3.4440   -0.0674    5.4719 C.3       1 <0>        -0.0918
     12 C12         3.1682   -2.4952    6.0163 C.3       1 <0>        -0.0841
     13 C13         2.9000   -0.3276    4.0730 C.3       1 <0>         0.0870
     14 C14        -4.0628    1.2474    4.6598 C.3       1 <0>         0.2023
     15 C15         2.5392   -2.7371    4.6417 C.3       1 <0>         0.0778
     16 C16        -3.3611    2.0019    5.7939 C.3       1 <0>        -0.0746
     17 C17         4.1435   -1.3104    6.0281 C.3       1 <0>        -0.0681
     18 C18        -3.9527    3.3976    5.9715 C.3       1 <0>        -0.0944
     19 C19         4.6673   -1.0527    7.4396 C.3       1 <0>        -0.0918
     20 C20        -0.5404   -4.8511    2.0458 C.3       1 <0>        -0.1192
     21 C21         0.3004   -3.5693    2.0376 C.3       1 <0>        -0.0916
     22 C22        -0.1768   -5.7847    0.8978 C.3       1 <0>         0.1883
     23 C23        -0.0078   -2.6730    3.2260 C.3       1 <0>         0.1952
     24 N1         -3.4782   -0.0694    4.4890 N.pl3     1 <0>        -0.7670
     25 N2          2.0252   -1.5038    4.0223 N.am      1 <0>        -0.4509
     26 N3          2.9496   -7.7229    1.7631 N.pl3     1 <0>        -0.8477
     27 N4          0.6648   -8.0708    2.4061 N.pl3     1 <0>        -0.8633
     28 N5          1.2122   -6.2141    0.9723 N.pl3     1 <0>        -0.7419
     29 N6         -1.3760   -2.1385    3.1042 N.pl3     1 <0>        -0.8860
     30 O1          4.3335   -2.8779    2.9993 O.2       1 <0>        -0.5199
     31 O2          0.5240   -0.4555    2.5844 O.2       1 <0>        -0.6131
     32 O3         -2.3304   -4.3295    4.0644 O.2       1 <0>        -0.6576
     33 O4         -3.9087   -2.5768    3.1921 O.2       1 <0>        -0.6482
     34 O5          3.5241   -4.7791    3.9616 O.3       1 <0>        -0.6303
     35 S1         -2.6746   -2.9347    3.8647 S.o2      1 <0>         1.5193
     36 H1         -1.9909   -2.9498    8.6676 H         1 <0>         0.1426
     37 H2         -2.6574   -0.5917    8.9847 H         1 <0>         0.1398
     38 H3         -2.0103   -3.9495    6.3897 H         1 <0>         0.1599
     39 H4         -4.5027    1.2042    7.4664 H         1 <0>         0.0574
     40 H5         -2.8343    1.6552    7.8598 H         1 <0>         0.0629
     41 H6          4.1435    0.7764    5.4419 H         1 <0>         0.0614
     42 H7          2.6191    0.2214    6.1357 H         1 <0>         0.0593
     43 H8          2.3618   -2.2928    6.7345 H         1 <0>         0.0841
     44 H9          3.6813   -3.3988    6.3690 H         1 <0>         0.0679
     45 H10         2.3679    0.5618    3.7197 H         1 <0>         0.0826
     46 H11         3.7232   -0.5081    3.3711 H         1 <0>         0.0383
     47 H12        -5.1346    1.1449    4.8705 H         1 <0>         0.0556
     48 H13        -3.9688    1.8032    3.7203 H         1 <0>         0.0415
     49 H14         1.7211   -3.4548    4.7590 H         1 <0>         0.0851
     50 H15        -2.2992    2.1152    5.5368 H         1 <0>         0.0639
     51 H16         5.0063   -1.5479    5.3937 H         1 <0>         0.0584
     52 H17        -3.6607    4.0473    5.1410 H         1 <0>         0.0401
     53 H18        -5.0453    3.3508    6.0047 H         1 <0>         0.0440
     54 H19        -3.5987    3.8493    6.9030 H         1 <0>         0.0459
     55 H20         4.2777   -1.8006    8.1367 H         1 <0>         0.0456
     56 H21         5.7602   -1.1000    7.4588 H         1 <0>         0.0366
     57 H22         4.3590   -0.0627    7.7891 H         1 <0>         0.0474
     58 H23        -0.4002   -5.3741    2.9994 H         1 <0>         0.0800
     59 H24        -1.6035   -4.5964    1.9658 H         1 <0>         0.0681
     60 H25         0.1357   -3.0322    1.0943 H         1 <0>         0.0740
     61 H26         1.3654   -3.8328    2.0643 H         1 <0>         0.0631
     62 H27        -0.3350   -5.3004   -0.0711 H         1 <0>         0.0970
     63 H28        -0.8024   -6.6822    0.9336 H         1 <0>         0.0725
     64 H29         0.1003   -3.1895    4.1787 H         1 <0>         0.0839
     65 H30        -3.5654   -0.5418    3.5977 H         1 <0>         0.4531
     66 H31         3.6785   -7.2150    1.2691 H         1 <0>         0.4798
     67 H32         3.2344   -8.5378    2.3016 H         1 <0>         0.4881
     68 H33        -0.3190   -7.8132    2.3888 H         1 <0>         0.4801
     69 H34         0.9286   -8.8877    2.9518 H         1 <0>         0.4806
     70 H35         1.9332   -5.6921    0.4720 H         1 <0>         0.4689
     71 H36        -1.4476   -1.1318    2.9219 H         1 <0>         0.4505
     72 H37         4.1809   -5.2504    3.4059 H         1 <0>         0.4443
@<TRIPOS>BOND
     1    1    2 ar
     2    1    3 ar
     3    2    4 ar
     4    3    6 ar
     5    4    5 ar
     6    4   10 1
     7    5    6 ar
     8    5   24 1
     9    6   35 1
    10    7   15 1
    11    7   30 2
    12    7   34 1
    13    8   23 1
    14    8   25 am
    15    8   31 2
    16    9   26 1
    17    9   27 1
    18    9   28 1
    19   10   16 1
    20   11   13 1
    21   11   17 1
    22   12   15 1
    23   12   17 1
    24   13   25 1
    25   14   16 1
    26   14   24 1
    27   15   25 1
    28   16   18 1
    29   17   19 1
    30   20   21 1
    31   20   22 1
    32   21   23 1
    33   22   28 1
    34   23   29 1
    35   29   35 1
    36   32   35 2
    37   33   35 2
    38    1   36 1
    39    2   37 1
    40    3   38 1
    41   10   39 1
    42   10   40 1
    43   11   41 1
    44   11   42 1
    45   12   43 1
    46   12   44 1
    47   13   45 1
    48   13   46 1
    49   14   47 1
    50   14   48 1
    51   15   49 1
    52   16   50 1
    53   17   51 1
    54   18   52 1
    55   18   53 1
    56   18   54 1
    57   19   55 1
    58   19   56 1
    59   19   57 1
    60   20   58 1
    61   20   59 1
    62   21   60 1
    63   21   61 1
    64   22   62 1
    65   22   63 1
    66   23   64 1
    67   24   65 1
    68   26   66 1
    69   26   67 1
    70   27   68 1
    71   27   69 1
    72   28   70 1
    73   29   71 1
    74   34   72 1
@<TRIPOS>MOLECULE
1dwc_ligand_260
   72    74     0     0     0
SMALL
USER_CHARGES

mmff94s_NoEstat = 80.55
@<TRIPOS>ATOM
      1 C1          6.2986    0.4181   -4.1573 C.ar      1 <0>        -0.1945
      2 C2          7.2263    1.0937   -3.3672 C.ar      1 <0>        -0.0294
      3 C3          5.9283   -0.8834   -3.8326 C.ar      1 <0>        -0.0143
      4 C4          7.7931    0.4682   -2.2473 C.ar      1 <0>        -0.1552
      5 C5          7.4020   -0.8385   -1.8954 C.ar      1 <0>         0.3076
      6 C6          6.4787   -1.5076   -2.7119 C.ar      1 <0>        -0.4908
      7 C7          3.7685    1.5685    0.3235 C.2       1 <0>         0.5994
      8 C8          2.9466   -1.3973   -0.6457 C.2       1 <0>         0.6462
      9 C9         -0.2536   -7.2081   -1.3618 C.cat     1 <0>         0.6305
     10 C10         8.7905    1.2197   -1.3988 C.3       1 <0>        -0.0319
     11 C11         1.8611    1.7587   -2.3835 C.3       1 <0>        -0.0918
     12 C12         1.3294    1.8958    0.1130 C.3       1 <0>        -0.0841
     13 C13         1.7075    0.2690   -2.0963 C.3       1 <0>         0.0870
     14 C14         8.7562   -0.7500    0.1609 C.3       1 <0>         0.2023
     15 C15         2.4335    0.8481    0.2329 C.3       1 <0>         0.0778
     16 C16         9.6495    0.2846   -0.5320 C.3       1 <0>        -0.0746
     17 C17         1.3508    2.6418   -1.2332 C.3       1 <0>        -0.0681
     18 C18        10.7689   -0.3785   -1.3425 C.3       1 <0>        -0.0944
     19 C19        -0.0342    3.2135   -1.5417 C.3       1 <0>        -0.0918
     20 C20         2.0376   -4.1819   -1.4375 C.3       1 <0>        -0.1192
     21 C21         2.4114   -3.0756   -2.4306 C.3       1 <0>        -0.0916
     22 C22         1.0502   -5.1786   -2.0318 C.3       1 <0>         0.1883
     23 C23         3.4544   -2.1251   -1.8653 C.3       1 <0>         0.1952
     24 N1          7.9519   -1.4860   -0.7961 N.pl3     1 <0>        -0.7670
     25 N2          2.3949   -0.1309   -0.8598 N.am      1 <0>        -0.4509
     26 N3         -0.5855   -8.1838   -0.4275 N.pl3     1 <0>        -0.8477
     27 N4         -0.8674   -7.2277   -2.6095 N.pl3     1 <0>        -0.8633
     28 N5          0.6828   -6.2099   -1.0722 N.pl3     1 <0>        -0.7419
     29 N6          4.6097   -2.8934   -1.3678 N.pl3     1 <0>        -0.8860
     30 O1          4.0589    2.4051    1.1656 O.2       1 <0>        -0.5199
     31 O2          3.0377   -1.9312    0.4627 O.2       1 <0>        -0.6131
     32 O3          5.5181   -3.7497   -3.6206 O.2       1 <0>        -0.6576
     33 O4          7.0129   -3.7800   -1.5984 O.2       1 <0>        -0.6482
     34 O5          4.6017    1.1585   -0.6640 O.3       1 <0>        -0.6303
     35 S1          5.9585   -3.1544   -2.3734 S.o2      1 <0>         1.5193
     36 H1          5.8674    0.9054   -5.0277 H         1 <0>         0.1426
     37 H2          7.5119    2.1094   -3.6302 H         1 <0>         0.1398
     38 H3          5.2111   -1.4218   -4.4441 H         1 <0>         0.1599
     39 H4          9.4417    1.8332   -2.0333 H         1 <0>         0.0574
     40 H5          8.2279    1.9001   -0.7468 H         1 <0>         0.0629
     41 H6          2.9275    1.9711   -2.5379 H         1 <0>         0.0614
     42 H7          1.3587    2.0144   -3.3237 H         1 <0>         0.0593
     43 H8          0.3614    1.3894    0.2306 H         1 <0>         0.0841
     44 H9          1.3961    2.6253    0.9302 H         1 <0>         0.0679
     45 H10         0.6501    0.0044   -1.9791 H         1 <0>         0.0826
     46 H11         2.0979   -0.3101   -2.9388 H         1 <0>         0.0383
     47 H12         9.3652   -1.4544    0.7384 H         1 <0>         0.0556
     48 H13         8.0893   -0.2456    0.8710 H         1 <0>         0.0415
     49 H14         2.3194    0.3128    1.1832 H         1 <0>         0.0851
     50 H15        10.1430    0.8899    0.2384 H         1 <0>         0.0639
     51 H16         2.0299    3.4998   -1.1486 H         1 <0>         0.0584
     52 H17        10.6547   -0.1574   -2.4080 H         1 <0>         0.0401
     53 H18        11.7474   -0.0127   -1.0176 H         1 <0>         0.0440
     54 H19        10.7462   -1.4646   -1.2119 H         1 <0>         0.0459
     55 H20         0.0409    4.0371   -2.2580 H         1 <0>         0.0456
     56 H21        -0.6818    2.4425   -1.9698 H         1 <0>         0.0366
     57 H22        -0.5055    3.5921   -0.6298 H         1 <0>         0.0474
     58 H23         2.9446   -4.7113   -1.1217 H         1 <0>         0.0800
     59 H24         1.5893   -3.7381   -0.5411 H         1 <0>         0.0681
     60 H25         1.5058   -2.5277   -2.7226 H         1 <0>         0.0740
     61 H26         2.8104   -3.5289   -3.3468 H         1 <0>         0.0631
     62 H27         1.4667   -5.6672   -2.9184 H         1 <0>         0.0970
     63 H28         0.1320   -4.6626   -2.3297 H         1 <0>         0.0725
     64 H29         3.7902   -1.3903   -2.5956 H         1 <0>         0.0839
     65 H30         7.5837   -2.3942   -0.5409 H         1 <0>         0.4531
     66 H31        -0.1613   -8.2101    0.4959 H         1 <0>         0.4798
     67 H32        -1.2672   -8.9065   -0.6465 H         1 <0>         0.4881
     68 H33        -0.6480   -6.5297   -3.3160 H         1 <0>         0.4801
     69 H34        -1.5528   -7.9404   -2.8480 H         1 <0>         0.4806
     70 H35         1.1164   -6.2217   -0.1478 H         1 <0>         0.4689
     71 H36         4.7395   -2.8961   -0.3505 H         1 <0>         0.4505
     72 H37         5.4695    1.6141   -0.6238 H         1 <0>         0.4443
@<TRIPOS>BOND
     1    1    2 ar
     2    1    3 ar
     3    2    4 ar
     4    3    6 ar
     5    4    5 ar
     6    4   10 1
     7    5    6 ar
     8    5   24 1
     9    6   35 1
    10    7   15 1
    11    7   30 2
    12    7   34 1
    13    8   23 1
    14    8   25 am
    15    8   31 2
    16    9   26 1
    17    9   27 1
    18    9   28 1
    19   10   16 1
    20   11   13 1
    21   11   17 1
    22   12   15 1
    23   12   17 1
    24   13   25 1
    25   14   16 1
    26   14   24 1
    27   15   25 1
    28   16   18 1
    29   17   19 1
    30   20   21 1
    31   20   22 1
    32   21   23 1
    33   22   28 1
    34   23   29 1
    35   29   35 1
    36   32   35 2
    37   33   35 2
    38    1   36 1
    39    2   37 1
    40    3   38 1
    41   10   39 1
    42   10   40 1
    43   11   41 1
    44   11   42 1
    45   12   43 1
    46   12   44 1
    47   13   45 1
    48   13   46 1
    49   14   47 1
    50   14   48 1
    51   15   49 1
    52   16   50 1
    53   17   51 1
    54   18   52 1
    55   18   53 1
    56   18   54 1
    57   19   55 1
    58   19   56 1
    59   19   57 1
    60   20   58 1
    61   20   59 1
    62   21   60 1
    63   21   61 1
    64   22   62 1
    65   22   63 1
    66   23   64 1
    67   24   65 1
    68   26   66 1
    69   26   67 1
    70   27   68 1
    71   27   69 1
    72   28   70 1
    73   29   71 1
    74   34   72 1
@<TRIPOS>MOLECULE
1dwc_ligand_261
   72    74     0     0     0
SMALL
USER_CHARGES

mmff94s_NoEstat = 80.56
@<TRIPOS>ATOM
      1 C1          3.3055   -6.8449   -1.9341 C.ar      1 <0>        -0.1945
      2 C2          3.8095   -7.1580   -3.1947 C.ar      1 <0>        -0.0294
      3 C3          2.5030   -5.7201   -1.7675 C.ar      1 <0>        -0.0143
      4 C4          3.5095   -6.3479   -4.2992 C.ar      1 <0>        -0.1552
      5 C5          2.7217   -5.1914   -4.1335 C.ar      1 <0>         0.3076
      6 C6          2.2111   -4.9017   -2.8599 C.ar      1 <0>        -0.4908
      7 C7          1.8102   -1.5505    2.3702 C.2       1 <0>         0.5994
      8 C8          2.9466   -1.3973   -0.6457 C.2       1 <0>         0.6462
      9 C9          4.9528    0.1036   -6.2734 C.cat     1 <0>         0.6305
     10 C10         4.0704   -6.6982   -5.6567 C.3       1 <0>        -0.0319
     11 C11         4.4920   -3.4807    2.0801 C.3       1 <0>        -0.0918
     12 C12         4.1798   -1.0721    2.8769 C.3       1 <0>        -0.0841
     13 C13         4.5658   -2.7774    0.7291 C.3       1 <0>         0.0870
     14 C14         3.0733   -4.5524   -6.4856 C.3       1 <0>         0.2023
     15 C15         3.1125   -1.0286    1.7861 C.3       1 <0>         0.0778
     16 C16         3.2586   -6.0435   -6.7854 C.3       1 <0>        -0.0746
     17 C17         4.5869   -2.5050    3.2643 C.3       1 <0>        -0.0681
     18 C18         3.9400   -6.2504   -8.1353 C.3       1 <0>        -0.0944
     19 C19         5.9882   -2.5079    3.8779 C.3       1 <0>        -0.0918
     20 C20         4.0666    0.0061   -3.0917 C.3       1 <0>        -0.1192
     21 C21         4.5564   -1.3488   -2.5679 C.3       1 <0>        -0.0916
     22 C22         5.1498    0.7503   -3.8628 C.3       1 <0>         0.1883
     23 C23         3.4544   -2.1251   -1.8653 C.3       1 <0>         0.1952
     24 N1          2.4075   -4.3705   -5.2096 N.pl3     1 <0>        -0.7670
     25 N2          3.5192   -1.7560    0.5781 N.am      1 <0>        -0.4509
     26 N3          5.3941   -0.6210   -7.3756 N.pl3     1 <0>        -0.8477
     27 N4          3.8552    0.9464   -6.4114 N.pl3     1 <0>        -0.8633
     28 N5          5.5893    0.0019   -5.0317 N.pl3     1 <0>        -0.7419
     29 N6          2.2741   -2.2179   -2.7432 N.pl3     1 <0>        -0.8860
     30 O1          1.2492   -1.0925    3.3546 O.2       1 <0>        -0.5199
     31 O2          2.0685   -0.5400   -0.7710 O.2       1 <0>        -0.6131
     32 O3          0.1927   -3.4494   -3.6292 O.2       1 <0>        -0.6576
     33 O4          0.7527   -3.5815   -1.1810 O.2       1 <0>        -0.6482
     34 O5          1.3501   -2.6026    1.6500 O.3       1 <0>        -0.6303
     35 S1          1.1775   -3.5081   -2.5659 S.o2      1 <0>         1.5193
     36 H1          3.5358   -7.4800   -1.0832 H         1 <0>         0.1426
     37 H2          4.4333   -8.0405   -3.3162 H         1 <0>         0.1398
     38 H3          2.0998   -5.4697   -0.7914 H         1 <0>         0.1599
     39 H4          5.1147   -6.3633   -5.6949 H         1 <0>         0.0574
     40 H5          4.0627   -7.7864   -5.7947 H         1 <0>         0.0629
     41 H6          3.5311   -4.0088    2.1410 H         1 <0>         0.0614
     42 H7          5.2694   -4.2509    2.1463 H         1 <0>         0.0593
     43 H8          5.0641   -0.5305    2.5137 H         1 <0>         0.0841
     44 H9          3.8399   -0.5392    3.7741 H         1 <0>         0.0679
     45 H10         5.5312   -2.2723    0.6079 H         1 <0>         0.0826
     46 H11         4.4795   -3.5150   -0.0747 H         1 <0>         0.0383
     47 H12         4.0431   -4.0398   -6.4660 H         1 <0>         0.0556
     48 H13         2.4729   -4.0799   -7.2710 H         1 <0>         0.0415
     49 H14         2.9188    0.0160    1.5141 H         1 <0>         0.0851
     50 H15         2.2693   -6.5190   -6.8298 H         1 <0>         0.0639
     51 H16         3.9047   -2.8651    4.0450 H         1 <0>         0.0584
     52 H17         3.2554   -6.0057   -8.9529 H         1 <0>         0.0401
     53 H18         4.8233   -5.6107   -8.2222 H         1 <0>         0.0440
     54 H19         4.2559   -7.2916   -8.2507 H         1 <0>         0.0459
     55 H20         6.0310   -3.1862    4.7353 H         1 <0>         0.0456
     56 H21         6.7293   -2.8350    3.1425 H         1 <0>         0.0366
     57 H22         6.2606   -1.5045    4.2187 H         1 <0>         0.0474
     58 H23         3.1961   -0.1462   -3.7411 H         1 <0>         0.0800
     59 H24         3.7428    0.6319   -2.2522 H         1 <0>         0.0681
     60 H25         5.4094   -1.1917   -1.8946 H         1 <0>         0.0740
     61 H26         4.9285   -1.9502   -3.4070 H         1 <0>         0.0631
     62 H27         6.0226    0.9442   -3.2312 H         1 <0>         0.0970
     63 H28         4.7647    1.7133   -4.2128 H         1 <0>         0.0725
     64 H29         3.7703   -3.1244   -1.5692 H         1 <0>         0.0839
     65 H30         1.9026   -3.5116   -5.0286 H         1 <0>         0.4531
     66 H31         6.1929   -1.2474   -7.3223 H         1 <0>         0.4798
     67 H32         4.9258   -0.5407   -8.2753 H         1 <0>         0.4881
     68 H33         3.5064    1.4907   -5.6261 H         1 <0>         0.4801
     69 H34         3.3717    1.0398   -7.3014 H         1 <0>         0.4806
     70 H35         6.3922   -0.6250   -4.9615 H         1 <0>         0.4689
     71 H36         1.9407   -1.3323   -3.1385 H         1 <0>         0.4505
     72 H37         0.5099   -2.9556    2.0129 H         1 <0>         0.4443
@<TRIPOS>BOND
     1    1    2 ar
     2    1    3 ar
     3    2    4 ar
     4    3    6 ar
     5    4    5 ar
     6    4   10 1
     7    5    6 ar
     8    5   24 1
     9    6   35 1
    10    7   15 1
    11    7   30 2
    12    7   34 1
    13    8   23 1
    14    8   25 am
    15    8   31 2
    16    9   26 1
    17    9   27 1
    18    9   28 1
    19   10   16 1
    20   11   13 1
    21   11   17 1
    22   12   15 1
    23   12   17 1
    24   13   25 1
    25   14   16 1
    26   14   24 1
    27   15   25 1
    28   16   18 1
    29   17   19 1
    30   20   21 1
    31   20   22 1
    32   21   23 1
    33   22   28 1
    34   23   29 1
    35   29   35 1
    36   32   35 2
    37   33   35 2
    38    1   36 1
    39    2   37 1
    40    3   38 1
    41   10   39 1
    42   10   40 1
    43   11   41 1
    44   11   42 1
    45   12   43 1
    46   12   44 1
    47   13   45 1
    48   13   46 1
    49   14   47 1
    50   14   48 1
    51   15   49 1
    52   16   50 1
    53   17   51 1
    54   18   52 1
    55   18   53 1
    56   18   54 1
    57   19   55 1
    58   19   56 1
    59   19   57 1
    60   20   58 1
    61   20   59 1
    62   21   60 1
    63   21   61 1
    64   22   62 1
    65   22   63 1
    66   23   64 1
    67   24   65 1
    68   26   66 1
    69   26   67 1
    70   27   68 1
    71   27   69 1
    72   28   70 1
    73   29   71 1
    74   34   72 1
@<TRIPOS>MOLECULE
1dwc_ligand_262
   72    74     0     0     0
SMALL
USER_CHARGES

mmff94s_NoEstat = 80.58
@<TRIPOS>ATOM
      1 C1         -2.1298   -7.0550    2.6197 C.ar      1 <0>        -0.1945
      2 C2         -2.1776   -7.9063    3.7216 C.ar      1 <0>        -0.0294
      3 C3         -1.0466   -6.1974    2.4524 C.ar      1 <0>        -0.0143
      4 C4         -1.1415   -7.9019    4.6667 C.ar      1 <0>        -0.1552
      5 C5         -0.0281   -7.0574    4.4895 C.ar      1 <0>         0.3076
      6 C6         -0.0057   -6.1967    3.3824 C.ar      1 <0>        -0.4908
      7 C7         -1.2359   -0.6984    0.6725 C.2       1 <0>         0.5994
      8 C8          0.8654   -1.4427    3.2413 C.2       1 <0>         0.6462
      9 C9         -4.4066   -3.3472    6.8497 C.cat     1 <0>         0.6305
     10 C10        -1.2075   -8.8376    5.8498 C.3       1 <0>        -0.0319
     11 C11         1.8315    1.4466    1.1834 C.3       1 <0>        -0.0918
     12 C12         0.9831   -0.3423   -0.3484 C.3       1 <0>        -0.0841
     13 C13         1.0260    0.8397    2.3251 C.3       1 <0>         0.0870
     14 C14         1.0959   -8.0346    6.4521 C.3       1 <0>         0.2023
     15 C15         0.2462   -1.0009    0.8207 C.3       1 <0>         0.0778
     16 C16        -0.2880   -8.3979    7.0008 C.3       1 <0>        -0.0746
     17 C17         1.1635    1.1707   -0.1661 C.3       1 <0>        -0.0681
     18 C18        -0.8989   -7.2514    7.8146 C.3       1 <0>        -0.0944
     19 C19         1.9862    1.7609   -1.3098 C.3       1 <0>        -0.0918
     20 C20        -1.0866   -2.1427    5.4567 C.3       1 <0>        -0.1192
     21 C21        -1.3133   -2.4479    3.9716 C.3       1 <0>        -0.0916
     22 C22        -2.3970   -1.9935    6.2196 C.3       1 <0>         0.1883
     23 C23        -0.0078   -2.6730    3.2260 C.3       1 <0>         0.1952
     24 N1          1.0093   -7.0259    5.4129 N.pl3     1 <0>        -0.7670
     25 N2          0.7744   -0.5925    2.1333 N.am      1 <0>        -0.4509
     26 N3         -5.1439   -4.5252    6.7900 N.pl3     1 <0>        -0.8477
     27 N4         -4.8938   -2.2796    7.5959 N.pl3     1 <0>        -0.8633
     28 N5         -3.1876   -3.2152    6.1760 N.pl3     1 <0>        -0.7419
     29 N6          0.7961   -3.6905    3.9267 N.pl3     1 <0>        -0.8860
     30 O1         -1.8192    0.2321    1.2084 O.2       1 <0>        -0.5199
     31 O2          1.6103   -1.2468    4.2054 O.2       1 <0>        -0.6131
     32 O3          2.5030   -5.6116    3.7560 O.2       1 <0>        -0.6576
     33 O4          1.3467   -4.8031    1.6743 O.2       1 <0>        -0.6482
     34 O5         -1.8312   -1.6071   -0.1380 O.3       1 <0>        -0.6303
     35 S1          1.3247   -5.0804    3.0977 S.o2      1 <0>         1.5193
     36 H1         -2.9384   -7.0582    1.8938 H         1 <0>         0.1426
     37 H2         -3.0292   -8.5710    3.8458 H         1 <0>         0.1398
     38 H3         -1.0014   -5.5255    1.6011 H         1 <0>         0.1599
     39 H4         -2.2393   -8.9161    6.2138 H         1 <0>         0.0574
     40 H5         -0.9020   -9.8336    5.5046 H         1 <0>         0.0629
     41 H6          1.9320    2.5271    1.3399 H         1 <0>         0.0614
     42 H7          2.8448    1.0248    1.1881 H         1 <0>         0.0593
     43 H8          1.9753   -0.8057   -0.4365 H         1 <0>         0.0841
     44 H9          0.4607   -0.5403   -1.2930 H         1 <0>         0.0679
     45 H10         1.5496    1.0140    3.2709 H         1 <0>         0.0826
     46 H11         0.0484    1.3304    2.4051 H         1 <0>         0.0383
     47 H12         1.7419   -7.6685    7.2578 H         1 <0>         0.0556
     48 H13         1.5757   -8.9299    6.0380 H         1 <0>         0.0415
     49 H14         0.3330   -2.0869    0.7143 H         1 <0>         0.0851
     50 H15        -0.1776   -9.2426    7.6919 H         1 <0>         0.0639
     51 H16         0.1795    1.6553   -0.1825 H         1 <0>         0.0584
     52 H17        -1.8108   -6.8831    7.3352 H         1 <0>         0.0401
     53 H18        -1.1526   -7.5890    8.8240 H         1 <0>         0.0440
     54 H19        -0.1929   -6.4196    7.8967 H         1 <0>         0.0459
     55 H20         1.9407    1.1129   -2.1902 H         1 <0>         0.0456
     56 H21         1.6048    2.7479   -1.5883 H         1 <0>         0.0366
     57 H22         3.0342    1.8673   -1.0143 H         1 <0>         0.0474
     58 H23        -0.4913   -2.9455    5.9081 H         1 <0>         0.0800
     59 H24        -0.5143   -1.2136    5.5600 H         1 <0>         0.0681
     60 H25        -1.8840   -1.6286    3.5148 H         1 <0>         0.0740
     61 H26        -1.9315   -3.3495    3.8758 H         1 <0>         0.0631
     62 H27        -3.0022   -1.1781    5.8107 H         1 <0>         0.0970
     63 H28        -2.1935   -1.7693    7.2716 H         1 <0>         0.0725
     64 H29        -0.1638   -2.9774    2.1921 H         1 <0>         0.0839
     65 H30         1.8214   -6.4586    5.2027 H         1 <0>         0.4531
     66 H31        -4.8283   -5.3304    6.2558 H         1 <0>         0.4798
     67 H32        -6.0298   -4.6126    7.2825 H         1 <0>         0.4881
     68 H33        -4.3804   -1.4040    7.6609 H         1 <0>         0.4801
     69 H34        -5.7763   -2.3468    8.0972 H         1 <0>         0.4806
     70 H35        -2.8559   -4.0162    5.6365 H         1 <0>         0.4689
     71 H36         1.3354   -3.3564    4.7325 H         1 <0>         0.4505
     72 H37        -2.7902   -1.4300   -0.2450 H         1 <0>         0.4443
@<TRIPOS>BOND
     1    1    2 ar
     2    1    3 ar
     3    2    4 ar
     4    3    6 ar
     5    4    5 ar
     6    4   10 1
     7    5    6 ar
     8    5   24 1
     9    6   35 1
    10    7   15 1
    11    7   30 2
    12    7   34 1
    13    8   23 1
    14    8   25 am
    15    8   31 2
    16    9   26 1
    17    9   27 1
    18    9   28 1
    19   10   16 1
    20   11   13 1
    21   11   17 1
    22   12   15 1
    23   12   17 1
    24   13   25 1
    25   14   16 1
    26   14   24 1
    27   15   25 1
    28   16   18 1
    29   17   19 1
    30   20   21 1
    31   20   22 1
    32   21   23 1
    33   22   28 1
    34   23   29 1
    35   29   35 1
    36   32   35 2
    37   33   35 2
    38    1   36 1
    39    2   37 1
    40    3   38 1
    41   10   39 1
    42   10   40 1
    43   11   41 1
    44   11   42 1
    45   12   43 1
    46   12   44 1
    47   13   45 1
    48   13   46 1
    49   14   47 1
    50   14   48 1
    51   15   49 1
    52   16   50 1
    53   17   51 1
    54   18   52 1
    55   18   53 1
    56   18   54 1
    57   19   55 1
    58   19   56 1
    59   19   57 1
    60   20   58 1
    61   20   59 1
    62   21   60 1
    63   21   61 1
    64   22   62 1
    65   22   63 1
    66   23   64 1
    67   24   65 1
    68   26   66 1
    69   26   67 1
    70   27   68 1
    71   27   69 1
    72   28   70 1
    73   29   71 1
    74   34   72 1
@<TRIPOS>MOLECULE
1dwc_ligand_263
   72    74     0     0     0
SMALL
USER_CHARGES

mmff94s_NoEstat = 80.61
@<TRIPOS>ATOM
      1 C1         -2.2959   -2.3538    7.8119 C.ar      1 <0>        -0.1945
      2 C2         -2.6720   -1.0237    7.9869 C.ar      1 <0>        -0.0294
      3 C3         -2.3070   -2.9163    6.5390 C.ar      1 <0>        -0.0143
      4 C4         -3.0584   -0.2458    6.8861 C.ar      1 <0>        -0.1552
      5 C5         -3.1002   -0.8160    5.5982 C.ar      1 <0>         0.3076
      6 C6         -2.7033   -2.1518    5.4404 C.ar      1 <0>        -0.4908
      7 C7          3.5686   -3.4379    3.7704 C.2       1 <0>         0.5994
      8 C8          0.8654   -1.4427    3.2413 C.2       1 <0>         0.6462
      9 C9         -0.0382   -5.7761   -1.6019 C.cat     1 <0>         0.6305
     10 C10        -3.4700    1.1919    7.0953 C.3       1 <0>        -0.0319
     11 C11         3.4440   -0.0674    5.4719 C.3       1 <0>        -0.0918
     12 C12         3.1682   -2.4952    6.0163 C.3       1 <0>        -0.0841
     13 C13         2.9000   -0.3276    4.0730 C.3       1 <0>         0.0870
     14 C14        -4.0628    1.2474    4.6598 C.3       1 <0>         0.2023
     15 C15         2.5392   -2.7371    4.6417 C.3       1 <0>         0.0778
     16 C16        -3.3611    2.0019    5.7939 C.3       1 <0>        -0.0746
     17 C17         4.1435   -1.3104    6.0281 C.3       1 <0>        -0.0681
     18 C18        -3.9527    3.3976    5.9715 C.3       1 <0>        -0.0944
     19 C19         4.6673   -1.0527    7.4396 C.3       1 <0>        -0.0918
     20 C20        -0.5404   -4.8511    2.0458 C.3       1 <0>        -0.1192
     21 C21         0.3004   -3.5693    2.0376 C.3       1 <0>        -0.0916
     22 C22        -0.1768   -5.7847    0.8978 C.3       1 <0>         0.1883
     23 C23        -0.0078   -2.6730    3.2260 C.3       1 <0>         0.1952
     24 N1         -3.4782   -0.0694    4.4890 N.pl3     1 <0>        -0.7670
     25 N2          2.0252   -1.5038    4.0223 N.am      1 <0>        -0.4509
     26 N3         -0.2239   -5.1414   -2.8257 N.pl3     1 <0>        -0.8477
     27 N4          0.4773   -7.0675   -1.5794 N.pl3     1 <0>        -0.8633
     28 N5         -0.3589   -5.1430   -0.3963 N.pl3     1 <0>        -0.7419
     29 N6         -1.3760   -2.1385    3.1042 N.pl3     1 <0>        -0.8860
     30 O1          3.9563   -3.0382    2.6827 O.2       1 <0>        -0.5199
     31 O2          0.5240   -0.4555    2.5844 O.2       1 <0>        -0.6131
     32 O3         -2.3304   -4.3295    4.0644 O.2       1 <0>        -0.6576
     33 O4         -3.9087   -2.5768    3.1921 O.2       1 <0>        -0.6482
     34 O5          4.0020   -4.5770    4.3637 O.3       1 <0>        -0.6303
     35 S1         -2.6746   -2.9347    3.8647 S.o2      1 <0>         1.5193
     36 H1         -1.9909   -2.9498    8.6676 H         1 <0>         0.1426
     37 H2         -2.6574   -0.5917    8.9847 H         1 <0>         0.1398
     38 H3         -2.0103   -3.9495    6.3897 H         1 <0>         0.1599
     39 H4         -4.5027    1.2042    7.4664 H         1 <0>         0.0574
     40 H5         -2.8343    1.6552    7.8598 H         1 <0>         0.0629
     41 H6          4.1435    0.7764    5.4419 H         1 <0>         0.0614
     42 H7          2.6191    0.2214    6.1357 H         1 <0>         0.0593
     43 H8          2.3618   -2.2928    6.7345 H         1 <0>         0.0841
     44 H9          3.6813   -3.3988    6.3690 H         1 <0>         0.0679
     45 H10         2.3679    0.5618    3.7197 H         1 <0>         0.0826
     46 H11         3.7232   -0.5081    3.3711 H         1 <0>         0.0383
     47 H12        -5.1346    1.1449    4.8705 H         1 <0>         0.0556
     48 H13        -3.9688    1.8032    3.7203 H         1 <0>         0.0415
     49 H14         1.7211   -3.4548    4.7590 H         1 <0>         0.0851
     50 H15        -2.2992    2.1152    5.5368 H         1 <0>         0.0639
     51 H16         5.0063   -1.5479    5.3937 H         1 <0>         0.0584
     52 H17        -3.6607    4.0473    5.1410 H         1 <0>         0.0401
     53 H18        -5.0453    3.3508    6.0047 H         1 <0>         0.0440
     54 H19        -3.5987    3.8493    6.9030 H         1 <0>         0.0459
     55 H20         4.2777   -1.8006    8.1367 H         1 <0>         0.0456
     56 H21         5.7602   -1.1000    7.4588 H         1 <0>         0.0366
     57 H22         4.3590   -0.0627    7.7891 H         1 <0>         0.0474
     58 H23        -0.4002   -5.3741    2.9994 H         1 <0>         0.0800
     59 H24        -1.6035   -4.5964    1.9658 H         1 <0>         0.0681
     60 H25         0.1357   -3.0322    1.0943 H         1 <0>         0.0740
     61 H26         1.3654   -3.8328    2.0643 H         1 <0>         0.0631
     62 H27        -0.7862   -6.6937    0.9190 H         1 <0>         0.0970
     63 H28         0.8744   -6.0800    0.9749 H         1 <0>         0.0725
     64 H29         0.1003   -3.1895    4.1787 H         1 <0>         0.0839
     65 H30        -3.5654   -0.5418    3.5977 H         1 <0>         0.4531
     66 H31        -0.5995   -4.1991   -2.8910 H         1 <0>         0.4798
     67 H32         0.0114   -5.6094   -3.6979 H         1 <0>         0.4881
     68 H33         0.6256   -7.5607   -0.7023 H         1 <0>         0.4801
     69 H34         0.7207   -7.5524   -2.4398 H         1 <0>         0.4806
     70 H35        -0.7354   -4.1951   -0.4451 H         1 <0>         0.4689
     71 H36        -1.4476   -1.1318    2.9219 H         1 <0>         0.4505
     72 H37         4.6667   -5.0457    3.8153 H         1 <0>         0.4443
@<TRIPOS>BOND
     1    1    2 ar
     2    1    3 ar
     3    2    4 ar
     4    3    6 ar
     5    4    5 ar
     6    4   10 1
     7    5    6 ar
     8    5   24 1
     9    6   35 1
    10    7   15 1
    11    7   30 2
    12    7   34 1
    13    8   23 1
    14    8   25 am
    15    8   31 2
    16    9   26 1
    17    9   27 1
    18    9   28 1
    19   10   16 1
    20   11   13 1
    21   11   17 1
    22   12   15 1
    23   12   17 1
    24   13   25 1
    25   14   16 1
    26   14   24 1
    27   15   25 1
    28   16   18 1
    29   17   19 1
    30   20   21 1
    31   20   22 1
    32   21   23 1
    33   22   28 1
    34   23   29 1
    35   29   35 1
    36   32   35 2
    37   33   35 2
    38    1   36 1
    39    2   37 1
    40    3   38 1
    41   10   39 1
    42   10   40 1
    43   11   41 1
    44   11   42 1
    45   12   43 1
    46   12   44 1
    47   13   45 1
    48   13   46 1
    49   14   47 1
    50   14   48 1
    51   15   49 1
    52   16   50 1
    53   17   51 1
    54   18   52 1
    55   18   53 1
    56   18   54 1
    57   19   55 1
    58   19   56 1
    59   19   57 1
    60   20   58 1
    61   20   59 1
    62   21   60 1
    63   21   61 1
    64   22   62 1
    65   22   63 1
    66   23   64 1
    67   24   65 1
    68   26   66 1
    69   26   67 1
    70   27   68 1
    71   27   69 1
    72   28   70 1
    73   29   71 1
    74   34   72 1
@<TRIPOS>MOLECULE
1dwc_ligand_264
   72    74     0     0     0
SMALL
USER_CHARGES

mmff94s_NoEstat = 80.64
@<TRIPOS>ATOM
      1 C1         -2.9735   -6.2530    1.6373 C.ar      1 <0>        -0.1945
      2 C2         -3.9502   -5.9319    0.6969 C.ar      1 <0>        -0.0294
      3 C3         -2.5991   -5.3165    2.5963 C.ar      1 <0>        -0.0143
      4 C4         -4.5620   -4.6703    0.7131 C.ar      1 <0>        -0.1552
      5 C5         -4.1680   -3.7064    1.6625 C.ar      1 <0>         0.3076
      6 C6         -3.1944   -4.0540    2.6102 C.ar      1 <0>        -0.4908
      7 C7          0.7009   -2.1464    6.5648 C.2       1 <0>         0.5994
      8 C8          0.8654   -1.4427    3.2413 C.2       1 <0>         0.6462
      9 C9          4.0141   -6.1014   -0.2251 C.cat     1 <0>         0.6305
     10 C10        -5.6133   -4.3369   -0.3182 C.3       1 <0>        -0.0319
     11 C11         2.1349    1.1778    5.4857 C.3       1 <0>        -0.0918
     12 C12         0.0512    0.2342    6.5026 C.3       1 <0>        -0.0841
     13 C13         2.3350   -0.1191    4.7120 C.3       1 <0>         0.0870
     14 C14        -5.6251   -2.0139    0.6250 C.3       1 <0>         0.2023
     15 C15         0.2061   -1.0325    5.6569 C.3       1 <0>         0.0778
     16 C16        -6.5041   -3.1732    0.1443 C.3       1 <0>        -0.0746
     17 C17         1.3898    0.9236    6.7987 C.3       1 <0>        -0.0681
     18 C18        -7.4376   -2.7247   -0.9768 C.3       1 <0>        -0.0944
     19 C19         1.1710    2.2294    7.5603 C.3       1 <0>        -0.0918
     20 C20         1.7689   -4.0083    2.0091 C.3       1 <0>        -0.1192
     21 C21         0.3004   -3.5693    2.0376 C.3       1 <0>        -0.0916
     22 C22         2.0958   -4.8429    0.7769 C.3       1 <0>         0.1883
     23 C23        -0.0078   -2.6730    3.2260 C.3       1 <0>         0.1952
     24 N1         -4.7571   -2.4487    1.7030 N.pl3     1 <0>        -0.7670
     25 N2          1.0754   -0.8353    4.4846 N.am      1 <0>        -0.4509
     26 N3          5.3470   -6.4988   -0.2068 N.pl3     1 <0>        -0.8477
     27 N4          3.1913   -6.5359   -1.2586 N.pl3     1 <0>        -0.8633
     28 N5          3.4859   -5.2755    0.7729 N.pl3     1 <0>        -0.7419
     29 N6         -1.3760   -2.1385    3.1042 N.pl3     1 <0>        -0.8860
     30 O1          1.8726   -2.4569    6.7201 O.2       1 <0>        -0.5199
     31 O2          1.3411   -1.0305    2.1799 O.2       1 <0>        -0.6131
     32 O3         -3.7495   -1.9880    4.0928 O.2       1 <0>        -0.6576
     33 O4         -2.1627   -3.7355    4.9602 O.2       1 <0>        -0.6482
     34 O5         -0.3390   -2.7573    7.1834 O.3       1 <0>        -0.6303
     35 S1         -2.6746   -2.9347    3.8647 S.o2      1 <0>         1.5193
     36 H1         -2.5077   -7.2345    1.6241 H         1 <0>         0.1426
     37 H2         -4.2386   -6.6709   -0.0469 H         1 <0>         0.1398
     38 H3         -1.8439   -5.5576    3.3376 H         1 <0>         0.1599
     39 H4         -5.1058   -4.0785   -1.2564 H         1 <0>         0.0574
     40 H5         -6.2419   -5.2154   -0.5088 H         1 <0>         0.0629
     41 H6          3.1095    1.6373    5.6888 H         1 <0>         0.0614
     42 H7          1.5671    1.8861    4.8689 H         1 <0>         0.0593
     43 H8         -0.5924    0.9376    5.9566 H         1 <0>         0.0841
     44 H9         -0.4632    0.0070    7.4450 H         1 <0>         0.0679
     45 H10         2.8294    0.0994    3.7598 H         1 <0>         0.0826
     46 H11         2.9949   -0.7966    5.2674 H         1 <0>         0.0383
     47 H12        -5.0144   -1.6257   -0.1996 H         1 <0>         0.0556
     48 H13        -6.2500   -1.1878    0.9823 H         1 <0>         0.0415
     49 H14        -0.7880   -1.3485    5.3249 H         1 <0>         0.0851
     50 H15        -7.1243   -3.5159    0.9836 H         1 <0>         0.0639
     51 H16         1.9994    0.2688    7.4336 H         1 <0>         0.0584
     52 H17        -8.2266   -2.0766   -0.5837 H         1 <0>         0.0401
     53 H18        -6.8836   -2.1693   -1.7394 H         1 <0>         0.0440
     54 H19        -7.9082   -3.5894   -1.4541 H         1 <0>         0.0459
     55 H20         0.1089    2.3722    7.7811 H         1 <0>         0.0456
     56 H21         1.7213    2.2199    8.5059 H         1 <0>         0.0366
     57 H22         1.5173    3.0821    6.9686 H         1 <0>         0.0474
     58 H23         2.4156   -3.1229    2.0318 H         1 <0>         0.0800
     59 H24         1.9949   -4.6013    2.9028 H         1 <0>         0.0681
     60 H25        -0.3448   -4.4577    2.0448 H         1 <0>         0.0740
     61 H26         0.0666   -3.0218    1.1158 H         1 <0>         0.0631
     62 H27         1.9087   -4.2801   -0.1431 H         1 <0>         0.0970
     63 H28         1.4704   -5.7411    0.7573 H         1 <0>         0.0725
     64 H29         0.1003   -3.1895    4.1787 H         1 <0>         0.0839
     65 H30        -4.3889   -1.7653    2.3531 H         1 <0>         0.4531
     66 H31         5.9857   -6.2045    0.5272 H         1 <0>         0.4798
     67 H32         5.7233   -7.0992   -0.9370 H         1 <0>         0.4881
     68 H33         2.2121   -6.2643   -1.3027 H         1 <0>         0.4801
     69 H34         3.5471   -7.1379   -1.9973 H         1 <0>         0.4806
     70 H35         4.1145   -4.9729    1.5185 H         1 <0>         0.4689
     71 H36        -1.4476   -1.1318    2.9219 H         1 <0>         0.4505
     72 H37        -0.0400   -3.4817    7.7735 H         1 <0>         0.4443
@<TRIPOS>BOND
     1    1    2 ar
     2    1    3 ar
     3    2    4 ar
     4    3    6 ar
     5    4    5 ar
     6    4   10 1
     7    5    6 ar
     8    5   24 1
     9    6   35 1
    10    7   15 1
    11    7   30 2
    12    7   34 1
    13    8   23 1
    14    8   25 am
    15    8   31 2
    16    9   26 1
    17    9   27 1
    18    9   28 1
    19   10   16 1
    20   11   13 1
    21   11   17 1
    22   12   15 1
    23   12   17 1
    24   13   25 1
    25   14   16 1
    26   14   24 1
    27   15   25 1
    28   16   18 1
    29   17   19 1
    30   20   21 1
    31   20   22 1
    32   21   23 1
    33   22   28 1
    34   23   29 1
    35   29   35 1
    36   32   35 2
    37   33   35 2
    38    1   36 1
    39    2   37 1
    40    3   38 1
    41   10   39 1
    42   10   40 1
    43   11   41 1
    44   11   42 1
    45   12   43 1
    46   12   44 1
    47   13   45 1
    48   13   46 1
    49   14   47 1
    50   14   48 1
    51   15   49 1
    52   16   50 1
    53   17   51 1
    54   18   52 1
    55   18   53 1
    56   18   54 1
    57   19   55 1
    58   19   56 1
    59   19   57 1
    60   20   58 1
    61   20   59 1
    62   21   60 1
    63   21   61 1
    64   22   62 1
    65   22   63 1
    66   23   64 1
    67   24   65 1
    68   26   66 1
    69   26   67 1
    70   27   68 1
    71   27   69 1
    72   28   70 1
    73   29   71 1
    74   34   72 1
@<TRIPOS>MOLECULE
1dwc_ligand_265
   72    74     0     0     0
SMALL
USER_CHARGES

mmff94s_NoEstat = 80.64
@<TRIPOS>ATOM
      1 C1          0.6009   -5.4402   -0.5450 C.ar      1 <0>        -0.1945
      2 C2          1.9177   -5.1745   -0.9146 C.ar      1 <0>        -0.0294
      3 C3          0.2538   -5.4826    0.8019 C.ar      1 <0>        -0.0143
      4 C4          2.8980   -4.9531    0.0635 C.ar      1 <0>        -0.1552
      5 C5          2.5489   -4.9659    1.4281 C.ar      1 <0>         0.3076
      6 C6          1.2217   -5.2505    1.7807 C.ar      1 <0>        -0.4908
      7 C7         -0.2549    0.4306    0.6330 C.2       1 <0>         0.5994
      8 C8          0.8654   -1.4427    3.2413 C.2       1 <0>         0.6462
      9 C9         -4.4066   -3.3472    6.8497 C.cat     1 <0>         0.6305
     10 C10         4.3179   -4.6587   -0.3572 C.3       1 <0>        -0.0319
     11 C11         3.3665   -0.6443    0.6676 C.3       1 <0>        -0.0918
     12 C12         1.2181   -1.2005   -0.4907 C.3       1 <0>        -0.0841
     13 C13         2.5847   -0.2704    1.9206 C.3       1 <0>         0.0870
     14 C14         4.8245   -4.2772    2.0742 C.3       1 <0>         0.2023
     15 C15         0.4427   -0.9096    0.7969 C.3       1 <0>         0.0778
     16 C16         5.3306   -4.9077    0.7723 C.3       1 <0>        -0.0746
     17 C17         2.5288   -0.4088   -0.5919 C.3       1 <0>        -0.0681
     18 C18         5.6414   -6.3991    0.9431 C.3       1 <0>        -0.0944
     19 C19         3.3078   -0.8065   -1.8442 C.3       1 <0>        -0.0918
     20 C20        -1.0866   -2.1427    5.4567 C.3       1 <0>        -0.1192
     21 C21        -1.3133   -2.4479    3.9716 C.3       1 <0>        -0.0916
     22 C22        -2.3970   -1.9935    6.2196 C.3       1 <0>         0.1883
     23 C23        -0.0078   -2.6730    3.2260 C.3       1 <0>         0.1952
     24 N1          3.4999   -4.7575    2.4193 N.pl3     1 <0>        -0.7670
     25 N2          1.2915   -0.9578    1.9994 N.am      1 <0>        -0.4509
     26 N3         -5.1439   -4.5252    6.7900 N.pl3     1 <0>        -0.8477
     27 N4         -4.8938   -2.2796    7.5959 N.pl3     1 <0>        -0.8633
     28 N5         -3.1876   -3.2152    6.1760 N.pl3     1 <0>        -0.7419
     29 N6          0.7961   -3.6905    3.9267 N.pl3     1 <0>        -0.8860
     30 O1         -0.5780    0.9276   -0.4357 O.2       1 <0>        -0.5199
     31 O2          1.1650   -0.9321    4.3240 O.2       1 <0>        -0.6131
     32 O3         -0.6876   -5.7475    3.4786 O.2       1 <0>        -0.6576
     33 O4          1.7036   -6.0834    4.1813 O.2       1 <0>        -0.6482
     34 O5         -0.4710    1.0086    1.8398 O.3       1 <0>        -0.6303
     35 S1          0.6998   -5.3249    3.4597 S.o2      1 <0>         1.5193
     36 H1         -0.1532   -5.6173   -1.3071 H         1 <0>         0.1426
     37 H2          2.1805   -5.1462   -1.9695 H         1 <0>         0.1398
     38 H3         -0.7676   -5.6946    1.1020 H         1 <0>         0.1599
     39 H4          4.5872   -5.2635   -1.2316 H         1 <0>         0.0574
     40 H5          4.3648   -3.6041   -0.6574 H         1 <0>         0.0629
     41 H6          4.2893   -0.0541    0.6219 H         1 <0>         0.0614
     42 H7          3.6617   -1.6999    0.7239 H         1 <0>         0.0593
     43 H8          1.4535   -2.2733   -0.5175 H         1 <0>         0.0841
     44 H9          0.5944   -0.9953   -1.3701 H         1 <0>         0.0679
     45 H10         3.1909   -0.4908    2.8053 H         1 <0>         0.0826
     46 H11         2.3782    0.8066    1.9340 H         1 <0>         0.0383
     47 H12         5.5138   -4.4958    2.8973 H         1 <0>         0.0556
     48 H13         4.7892   -3.1861    1.9666 H         1 <0>         0.0415
     49 H14        -0.3616   -1.6465    0.8882 H         1 <0>         0.0851
     50 H15         6.2762   -4.4249    0.4964 H         1 <0>         0.0639
     51 H16         2.2982    0.6607   -0.6719 H         1 <0>         0.0584
     52 H17         4.9808   -7.0038    0.3146 H         1 <0>         0.0401
     53 H18         6.6765   -6.6112    0.6589 H         1 <0>         0.0440
     54 H19         5.5005   -6.7043    1.9843 H         1 <0>         0.0459
     55 H20         2.6382   -1.2449   -2.5902 H         1 <0>         0.0456
     56 H21         3.7937    0.0674   -2.2885 H         1 <0>         0.0366
     57 H22         4.0794   -1.5424   -1.5992 H         1 <0>         0.0474
     58 H23        -0.4913   -2.9455    5.9081 H         1 <0>         0.0800
     59 H24        -0.5143   -1.2136    5.5600 H         1 <0>         0.0681
     60 H25        -1.8840   -1.6286    3.5148 H         1 <0>         0.0740
     61 H26        -1.9315   -3.3495    3.8758 H         1 <0>         0.0631
     62 H27        -3.0022   -1.1781    5.8107 H         1 <0>         0.0970
     63 H28        -2.1935   -1.7693    7.2716 H         1 <0>         0.0725
     64 H29        -0.1638   -2.9774    2.1921 H         1 <0>         0.0839
     65 H30         3.1862   -4.7016    3.3805 H         1 <0>         0.4531
     66 H31        -4.8283   -5.3304    6.2558 H         1 <0>         0.4798
     67 H32        -6.0298   -4.6126    7.2825 H         1 <0>         0.4881
     68 H33        -4.3804   -1.4040    7.6609 H         1 <0>         0.4801
     69 H34        -5.7763   -2.3468    8.0972 H         1 <0>         0.4806
     70 H35        -2.8559   -4.0162    5.6365 H         1 <0>         0.4689
     71 H36         1.6533   -3.3509    4.3757 H         1 <0>         0.4505
     72 H37        -0.9194    1.8770    1.7552 H         1 <0>         0.4443
@<TRIPOS>BOND
     1    1    2 ar
     2    1    3 ar
     3    2    4 ar
     4    3    6 ar
     5    4    5 ar
     6    4   10 1
     7    5    6 ar
     8    5   24 1
     9    6   35 1
    10    7   15 1
    11    7   30 2
    12    7   34 1
    13    8   23 1
    14    8   25 am
    15    8   31 2
    16    9   26 1
    17    9   27 1
    18    9   28 1
    19   10   16 1
    20   11   13 1
    21   11   17 1
    22   12   15 1
    23   12   17 1
    24   13   25 1
    25   14   16 1
    26   14   24 1
    27   15   25 1
    28   16   18 1
    29   17   19 1
    30   20   21 1
    31   20   22 1
    32   21   23 1
    33   22   28 1
    34   23   29 1
    35   29   35 1
    36   32   35 2
    37   33   35 2
    38    1   36 1
    39    2   37 1
    40    3   38 1
    41   10   39 1
    42   10   40 1
    43   11   41 1
    44   11   42 1
    45   12   43 1
    46   12   44 1
    47   13   45 1
    48   13   46 1
    49   14   47 1
    50   14   48 1
    51   15   49 1
    52   16   50 1
    53   17   51 1
    54   18   52 1
    55   18   53 1
    56   18   54 1
    57   19   55 1
    58   19   56 1
    59   19   57 1
    60   20   58 1
    61   20   59 1
    62   21   60 1
    63   21   61 1
    64   22   62 1
    65   22   63 1
    66   23   64 1
    67   24   65 1
    68   26   66 1
    69   26   67 1
    70   27   68 1
    71   27   69 1
    72   28   70 1
    73   29   71 1
    74   34   72 1
@<TRIPOS>MOLECULE
1dwc_ligand_266
   72    74     0     0     0
SMALL
USER_CHARGES

mmff94s_NoEstat = 80.65
@<TRIPOS>ATOM
      1 C1         -3.5731   -0.3507    6.7933 C.ar      1 <0>        -0.1945
      2 C2         -2.8629   -0.8352    7.8898 C.ar      1 <0>        -0.0294
      3 C3         -3.4972   -1.0111    5.5706 C.ar      1 <0>        -0.0143
      4 C4         -2.0739   -1.9881    7.7698 C.ar      1 <0>        -0.1552
      5 C5         -1.9688   -2.6459    6.5281 C.ar      1 <0>         0.3076
      6 C6         -2.7033   -2.1518    5.4404 C.ar      1 <0>        -0.4908
      7 C7          2.9525   -3.7210    4.6633 C.2       1 <0>         0.5994
      8 C8          0.8654   -1.4427    3.2413 C.2       1 <0>         0.6462
      9 C9         -0.6326   -5.9229   -1.4626 C.cat     1 <0>         0.6305
     10 C10        -1.3052   -2.4948    8.9666 C.3       1 <0>        -0.0319
     11 C11         3.8997   -0.0663    4.7953 C.3       1 <0>        -0.0918
     12 C12         3.0155   -1.8674    6.2922 C.3       1 <0>        -0.0841
     13 C13         3.1900   -0.7124    3.6122 C.3       1 <0>         0.0870
     14 C14        -0.2926   -4.2041    7.4373 C.3       1 <0>         0.2023
     15 C15         2.2314   -2.4635    5.1202 C.3       1 <0>         0.0778
     16 C16        -0.9358   -3.9782    8.8095 C.3       1 <0>        -0.0746
     17 C17         4.2756   -1.1130    5.8473 C.3       1 <0>        -0.0681
     18 C18        -0.0046   -4.4281    9.9318 C.3       1 <0>        -0.0944
     19 C19         4.9663   -0.4582    7.0420 C.3       1 <0>        -0.0918
     20 C20         0.0249   -2.8727    0.7002 C.3       1 <0>        -0.1192
     21 C21         0.3004   -3.5693    2.0376 C.3       1 <0>        -0.0916
     22 C22         0.2602   -3.7963   -0.4886 C.3       1 <0>         0.1883
     23 C23        -0.0078   -2.6730    3.2260 C.3       1 <0>         0.1952
     24 N1         -1.1954   -3.7907    6.3797 N.pl3     1 <0>        -0.7670
     25 N2          2.0252   -1.5038    4.0223 N.am      1 <0>        -0.4509
     26 N3         -1.4804   -7.0239   -1.4014 N.pl3     1 <0>        -0.8477
     27 N4          0.2178   -5.7819   -2.5539 N.pl3     1 <0>        -0.8633
     28 N5         -0.6182   -4.9567   -0.4508 N.pl3     1 <0>        -0.7419
     29 N6         -1.3760   -2.1385    3.1042 N.pl3     1 <0>        -0.8860
     30 O1          3.7741   -3.7699    3.7601 O.2       1 <0>        -0.5199
     31 O2          0.5240   -0.4555    2.5844 O.2       1 <0>        -0.6131
     32 O3         -2.3304   -4.3295    4.0644 O.2       1 <0>        -0.6576
     33 O4         -3.9087   -2.5768    3.1921 O.2       1 <0>        -0.6482
     34 O5          2.5581   -4.7916    5.3952 O.3       1 <0>        -0.6303
     35 S1         -2.6746   -2.9347    3.8647 S.o2      1 <0>         1.5193
     36 H1         -4.1882    0.5393    6.8939 H         1 <0>         0.1426
     37 H2         -2.9305   -0.3144    8.8420 H         1 <0>         0.1398
     38 H3         -4.0508   -0.6464    4.7113 H         1 <0>         0.1599
     39 H4         -0.3986   -1.8861    9.0767 H         1 <0>         0.0574
     40 H5         -1.9049   -2.3694    9.8765 H         1 <0>         0.0629
     41 H6          4.7987    0.4538    4.4437 H         1 <0>         0.0614
     42 H7          3.2442    0.6909    5.2441 H         1 <0>         0.0593
     43 H8          2.3586   -1.1679    6.8273 H         1 <0>         0.0841
     44 H9          3.2888   -2.6509    7.0104 H         1 <0>         0.0679
     45 H10         2.8945    0.0639    2.8988 H         1 <0>         0.0826
     46 H11         3.8704   -1.3909    3.0835 H         1 <0>         0.0383
     47 H12         0.6461   -3.6422    7.3545 H         1 <0>         0.0556
     48 H13        -0.0488   -5.2639    7.3032 H         1 <0>         0.0415
     49 H14         1.2607   -2.8048    5.4936 H         1 <0>         0.0851
     50 H15        -1.8536   -4.5786    8.8709 H         1 <0>         0.0639
     51 H16         4.9839   -1.8245    5.4052 H         1 <0>         0.0584
     52 H17         0.0610   -5.5198    9.9625 H         1 <0>         0.0401
     53 H18         1.0019   -4.0266    9.7806 H         1 <0>         0.0440
     54 H19        -0.3732   -4.0779   10.9006 H         1 <0>         0.0459
     55 H20         4.4464   -0.7091    7.9715 H         1 <0>         0.0456
     56 H21         6.0020   -0.8015    7.1231 H         1 <0>         0.0366
     57 H22         4.9717    0.6305    6.9335 H         1 <0>         0.0474
     58 H23        -1.0105   -2.5120    0.6824 H         1 <0>         0.0800
     59 H24         0.6776   -1.9980    0.5976 H         1 <0>         0.0681
     60 H25         1.3460   -3.9033    2.0652 H         1 <0>         0.0740
     61 H26        -0.3175   -4.4733    2.1109 H         1 <0>         0.0631
     62 H27         1.2957   -4.1503   -0.5157 H         1 <0>         0.0970
     63 H28         0.0608   -3.2615   -1.4226 H         1 <0>         0.0725
     64 H29         0.1003   -3.1895    4.1787 H         1 <0>         0.0839
     65 H30        -1.0906   -4.1840    5.4525 H         1 <0>         0.4531
     66 H31        -2.1173   -7.1693   -0.6226 H         1 <0>         0.4798
     67 H32        -1.4841   -7.7223   -2.1412 H         1 <0>         0.4881
     68 H33         0.8505   -4.9892   -2.6303 H         1 <0>         0.4801
     69 H34         0.2286   -6.4677   -3.3050 H         1 <0>         0.4806
     70 H35        -1.2539   -5.0876    0.3375 H         1 <0>         0.4689
     71 H36        -1.4476   -1.1318    2.9219 H         1 <0>         0.4505
     72 H37         3.0115   -5.6147    5.1139 H         1 <0>         0.4443
@<TRIPOS>BOND
     1    1    2 ar
     2    1    3 ar
     3    2    4 ar
     4    3    6 ar
     5    4    5 ar
     6    4   10 1
     7    5    6 ar
     8    5   24 1
     9    6   35 1
    10    7   15 1
    11    7   30 2
    12    7   34 1
    13    8   23 1
    14    8   25 am
    15    8   31 2
    16    9   26 1
    17    9   27 1
    18    9   28 1
    19   10   16 1
    20   11   13 1
    21   11   17 1
    22   12   15 1
    23   12   17 1
    24   13   25 1
    25   14   16 1
    26   14   24 1
    27   15   25 1
    28   16   18 1
    29   17   19 1
    30   20   21 1
    31   20   22 1
    32   21   23 1
    33   22   28 1
    34   23   29 1
    35   29   35 1
    36   32   35 2
    37   33   35 2
    38    1   36 1
    39    2   37 1
    40    3   38 1
    41   10   39 1
    42   10   40 1
    43   11   41 1
    44   11   42 1
    45   12   43 1
    46   12   44 1
    47   13   45 1
    48   13   46 1
    49   14   47 1
    50   14   48 1
    51   15   49 1
    52   16   50 1
    53   17   51 1
    54   18   52 1
    55   18   53 1
    56   18   54 1
    57   19   55 1
    58   19   56 1
    59   19   57 1
    60   20   58 1
    61   20   59 1
    62   21   60 1
    63   21   61 1
    64   22   62 1
    65   22   63 1
    66   23   64 1
    67   24   65 1
    68   26   66 1
    69   26   67 1
    70   27   68 1
    71   27   69 1
    72   28   70 1
    73   29   71 1
    74   34   72 1
@<TRIPOS>MOLECULE
1dwc_ligand_267
   72    74     0     0     0
SMALL
USER_CHARGES

mmff94s_NoEstat = 80.67
@<TRIPOS>ATOM
      1 C1         -2.2710   -1.6623    7.6435 C.ar      1 <0>        -0.1945
      2 C2         -1.5255   -2.6695    8.2527 C.ar      1 <0>        -0.0294
      3 C3         -2.6085   -1.7664    6.2973 C.ar      1 <0>        -0.0143
      4 C4         -1.1160   -3.7912    7.5176 C.ar      1 <0>        -0.1552
      5 C5         -1.4288   -3.8903    6.1472 C.ar      1 <0>         0.3076
      6 C6         -2.1929   -2.8737    5.5561 C.ar      1 <0>        -0.4908
      7 C7          3.6572    0.2351    4.2205 C.2       1 <0>         0.5994
      8 C8          0.8654   -1.4427    3.2413 C.2       1 <0>         0.6462
      9 C9          0.2237   -3.7376   -2.9912 C.cat     1 <0>         0.6305
     10 C10        -0.3024   -4.8697    8.1922 C.3       1 <0>        -0.0319
     11 C11         3.8985   -3.4862    3.6166 C.3       1 <0>        -0.0918
     12 C12         4.5525   -1.3270    2.5319 C.3       1 <0>        -0.0841
     13 C13         2.6738   -2.8056    4.2145 C.3       1 <0>         0.0870
     14 C14        -0.0979   -5.9519    5.9398 C.3       1 <0>         0.2023
     15 C15         3.2751   -0.6689    3.0601 C.3       1 <0>         0.0778
     16 C16        -0.3856   -6.1984    7.4244 C.3       1 <0>        -0.0746
     17 C17         5.0385   -2.4845    3.4144 C.3       1 <0>        -0.0681
     18 C18         0.5827   -7.2241    8.0072 C.3       1 <0>        -0.0944
     19 C19         6.2563   -3.1661    2.7936 C.3       1 <0>        -0.0918
     20 C20         0.0249   -2.8727    0.7002 C.3       1 <0>        -0.1192
     21 C21         0.3004   -3.5693    2.0376 C.3       1 <0>        -0.0916
     22 C22         0.2602   -3.7963   -0.4886 C.3       1 <0>         0.1883
     23 C23        -0.0078   -2.6730    3.2260 C.3       1 <0>         0.1952
     24 N1         -1.0371   -4.9903    5.3941 N.pl3     1 <0>        -0.7670
     25 N2          2.2374   -1.6470    3.4280 N.am      1 <0>        -0.4509
     26 N3         -0.0152   -3.0669   -4.1862 N.pl3     1 <0>        -0.8477
     27 N4          0.6744   -5.0526   -3.0302 N.pl3     1 <0>        -0.8633
     28 N5          0.0202   -3.1173   -1.7538 N.pl3     1 <0>        -0.7419
     29 N6         -1.3760   -2.1385    3.1042 N.pl3     1 <0>        -0.8860
     30 O1          3.6315   -0.0869    5.3991 O.2       1 <0>        -0.5199
     31 O2          0.3435   -0.3338    3.0981 O.2       1 <0>        -0.6131
     32 O3         -2.6902   -4.3257    3.4539 O.2       1 <0>        -0.6576
     33 O4         -3.8691   -2.1223    3.7357 O.2       1 <0>        -0.6482
     34 O5          4.0314    1.4581    3.7715 O.3       1 <0>        -0.6303
     35 S1         -2.6746   -2.9347    3.8647 S.o2      1 <0>         1.5193
     36 H1         -2.5913   -0.7986    8.2197 H         1 <0>         0.1426
     37 H2         -1.2690   -2.5812    9.3057 H         1 <0>         0.1398
     38 H3         -3.1940   -0.9909    5.8138 H         1 <0>         0.1599
     39 H4          0.7390   -4.5290    8.2522 H         1 <0>         0.0574
     40 H5         -0.6633   -5.0246    9.2164 H         1 <0>         0.0629
     41 H6          4.2244   -4.2993    4.2761 H         1 <0>         0.0614
     42 H7          3.6296   -3.9402    2.6542 H         1 <0>         0.0593
     43 H8          4.3500   -1.7152    1.5243 H         1 <0>         0.0841
     44 H9          5.3525   -0.5834    2.4253 H         1 <0>         0.0679
     45 H10         1.8623   -3.5349    4.3059 H         1 <0>         0.0826
     46 H11         2.8945   -2.4435    5.2260 H         1 <0>         0.0383
     47 H12         0.9249   -5.5797    5.8021 H         1 <0>         0.0556
     48 H13        -0.1803   -6.8886    5.3775 H         1 <0>         0.0415
     49 H14         2.8873    0.0006    2.2858 H         1 <0>         0.0851
     50 H15        -1.4032   -6.5999    7.5237 H         1 <0>         0.0639
     51 H16         5.3432   -2.0892    4.3913 H         1 <0>         0.0584
     52 H17         0.3544   -8.2256    7.6305 H         1 <0>         0.0401
     53 H18         1.6132   -6.9794    7.7327 H         1 <0>         0.0440
     54 H19         0.5120   -7.2425    9.0989 H         1 <0>         0.0459
     55 H20         6.5585   -2.6519    1.8763 H         1 <0>         0.0456
     56 H21         7.1004   -3.1536    3.4896 H         1 <0>         0.0366
     57 H22         6.0293   -4.2073    2.5458 H         1 <0>         0.0474
     58 H23        -1.0105   -2.5120    0.6824 H         1 <0>         0.0800
     59 H24         0.6776   -1.9980    0.5976 H         1 <0>         0.0681
     60 H25         1.3460   -3.9033    2.0652 H         1 <0>         0.0740
     61 H26        -0.3175   -4.4733    2.1109 H         1 <0>         0.0631
     62 H27        -0.3909   -4.6751   -0.4416 H         1 <0>         0.0970
     63 H28         1.2981   -4.1440   -0.4920 H         1 <0>         0.0725
     64 H29         0.1003   -3.1895    4.1787 H         1 <0>         0.0839
     65 H30        -1.2193   -4.9813    4.3981 H         1 <0>         0.4531
     66 H31        -0.3470   -2.1063   -4.2064 H         1 <0>         0.4798
     67 H32         0.1347   -3.5257   -5.0818 H         1 <0>         0.4881
     68 H33         0.8589   -5.5723   -2.1756 H         1 <0>         0.4801
     69 H34         0.8324   -5.5290   -3.9149 H         1 <0>         0.4806
     70 H35        -0.3110   -2.1514   -1.7574 H         1 <0>         0.4689
     71 H36        -1.4476   -1.1318    2.9219 H         1 <0>         0.4505
     72 H37         4.2804    2.0579    4.5068 H         1 <0>         0.4443
@<TRIPOS>BOND
     1    1    2 ar
     2    1    3 ar
     3    2    4 ar
     4    3    6 ar
     5    4    5 ar
     6    4   10 1
     7    5    6 ar
     8    5   24 1
     9    6   35 1
    10    7   15 1
    11    7   30 2
    12    7   34 1
    13    8   23 1
    14    8   25 am
    15    8   31 2
    16    9   26 1
    17    9   27 1
    18    9   28 1
    19   10   16 1
    20   11   13 1
    21   11   17 1
    22   12   15 1
    23   12   17 1
    24   13   25 1
    25   14   16 1
    26   14   24 1
    27   15   25 1
    28   16   18 1
    29   17   19 1
    30   20   21 1
    31   20   22 1
    32   21   23 1
    33   22   28 1
    34   23   29 1
    35   29   35 1
    36   32   35 2
    37   33   35 2
    38    1   36 1
    39    2   37 1
    40    3   38 1
    41   10   39 1
    42   10   40 1
    43   11   41 1
    44   11   42 1
    45   12   43 1
    46   12   44 1
    47   13   45 1
    48   13   46 1
    49   14   47 1
    50   14   48 1
    51   15   49 1
    52   16   50 1
    53   17   51 1
    54   18   52 1
    55   18   53 1
    56   18   54 1
    57   19   55 1
    58   19   56 1
    59   19   57 1
    60   20   58 1
    61   20   59 1
    62   21   60 1
    63   21   61 1
    64   22   62 1
    65   22   63 1
    66   23   64 1
    67   24   65 1
    68   26   66 1
    69   26   67 1
    70   27   68 1
    71   27   69 1
    72   28   70 1
    73   29   71 1
    74   34   72 1
@<TRIPOS>MOLECULE
1dwc_ligand_268
   72    74     0     0     0
SMALL
USER_CHARGES

mmff94s_NoEstat = 80.69
@<TRIPOS>ATOM
      1 C1          2.9804   -6.8364   -3.8826 C.ar      1 <0>        -0.1945
      2 C2          2.9418   -6.7056   -5.2692 C.ar      1 <0>        -0.0294
      3 C3          2.4346   -5.8419   -3.0764 C.ar      1 <0>        -0.0143
      4 C4          2.3519   -5.5783   -5.8586 C.ar      1 <0>        -0.1552
      5 C5          1.8230   -4.5534   -5.0490 C.ar      1 <0>         0.3076
      6 C6          1.8576   -4.7107   -3.6559 C.ar      1 <0>        -0.4908
      7 C7          2.4038   -0.4910    2.4030 C.2       1 <0>         0.5994
      8 C8          2.9466   -1.3973   -0.6457 C.2       1 <0>         0.6462
      9 C9          8.4655   -1.6847   -3.4911 C.cat     1 <0>         0.6305
     10 C10         2.3255   -5.4497   -7.3628 C.3       1 <0>        -0.0319
     11 C11         3.9178   -3.4419    2.3602 C.3       1 <0>        -0.0918
     12 C12         4.8012   -1.0545    2.5913 C.3       1 <0>        -0.0841
     13 C13         4.0430   -3.0960    0.8803 C.3       1 <0>         0.0870
     14 C14         1.3521   -3.1637   -7.0268 C.3       1 <0>         0.2023
     15 C15         3.6790   -0.7248    1.6100 C.3       1 <0>         0.0778
     16 C16         1.2367   -4.4677   -7.8231 C.3       1 <0>        -0.0746
     17 C17         4.6242   -2.4243    3.2705 C.3       1 <0>        -0.0681
     18 C18         1.3410   -4.2047   -9.3229 C.3       1 <0>        -0.0944
     19 C19         5.9763   -2.9527    3.7531 C.3       1 <0>        -0.0918
     20 C20         5.7415   -1.0578   -1.6401 C.3       1 <0>        -0.1192
     21 C21         4.5564   -1.3488   -2.5679 C.3       1 <0>        -0.0916
     22 C22         6.8115   -0.2136   -2.3213 C.3       1 <0>         0.1883
     23 C23         3.4544   -2.1251   -1.8653 C.3       1 <0>         0.1952
     24 N1          1.2318   -3.4255   -5.6050 N.pl3     1 <0>        -0.7670
     25 N2          3.5192   -1.7560    0.5781 N.am      1 <0>        -0.4509
     26 N3          8.9413   -2.2972   -4.6458 N.pl3     1 <0>        -0.8477
     27 N4          9.1326   -1.8934   -2.2888 N.pl3     1 <0>        -0.8633
     28 N5          7.3321   -0.8648   -3.5148 N.pl3     1 <0>        -0.7419
     29 N6          2.2741   -2.2179   -2.7432 N.pl3     1 <0>        -0.8860
     30 O1          2.2729    0.3351    3.2940 O.2       1 <0>        -0.5199
     31 O2          2.0685   -0.5400   -0.7710 O.2       1 <0>        -0.6131
     32 O3         -0.1165   -3.1121   -3.0880 O.2       1 <0>        -0.6576
     33 O4          1.2896   -4.0436   -1.2226 O.2       1 <0>        -0.6482
     34 O5          1.4223   -1.3294    1.9894 O.3       1 <0>        -0.6303
     35 S1          1.1775   -3.5081   -2.5659 S.o2      1 <0>         1.5193
     36 H1          3.4328   -7.7153   -3.4316 H         1 <0>         0.1426
     37 H2          3.3680   -7.4891   -5.8914 H         1 <0>         0.1398
     38 H3          2.4534   -5.9358   -1.9953 H         1 <0>         0.1599
     39 H4          3.3132   -5.1073   -7.6968 H         1 <0>         0.0574
     40 H5          2.1395   -6.4300   -7.8186 H         1 <0>         0.0629
     41 H6          2.8510   -3.4591    2.6203 H         1 <0>         0.0614
     42 H7          4.2939   -4.4553    2.5428 H         1 <0>         0.0593
     43 H8          5.7524   -1.0436    2.0413 H         1 <0>         0.0841
     44 H9          4.8832   -0.2779    3.3625 H         1 <0>         0.0679
     45 H10         5.0934   -3.1114    0.5668 H         1 <0>         0.0826
     46 H11         3.5122   -3.8428    0.2819 H         1 <0>         0.0383
     47 H12         2.3133   -2.6740   -7.2264 H         1 <0>         0.0556
     48 H13         0.5637   -2.4650   -7.3281 H         1 <0>         0.0415
     49 H14         3.9015    0.2290    1.1168 H         1 <0>         0.0851
     50 H15         0.2527   -4.9144   -7.6261 H         1 <0>         0.0639
     51 H16         4.0032   -2.2947    4.1661 H         1 <0>         0.0584
     52 H17         0.4364   -3.7110   -9.6904 H         1 <0>         0.0401
     53 H18         2.1981   -3.5608   -9.5417 H         1 <0>         0.0440
     54 H19         1.4672   -5.1439   -9.8699 H         1 <0>         0.0459
     55 H20         5.8782   -3.4157    4.7396 H         1 <0>         0.0456
     56 H21         6.3665   -3.7022    3.0580 H         1 <0>         0.0366
     57 H22         6.7034   -2.1384    3.8257 H         1 <0>         0.0474
     58 H23         5.3842   -0.5386   -0.7426 H         1 <0>         0.0800
     59 H24         6.1956   -2.0004   -1.3135 H         1 <0>         0.0681
     60 H25         4.9119   -1.8947   -3.4517 H         1 <0>         0.0740
     61 H26         4.1396   -0.4017   -2.9334 H         1 <0>         0.0631
     62 H27         7.6493   -0.0157   -1.6451 H         1 <0>         0.0970
     63 H28         6.3893    0.7487   -2.6278 H         1 <0>         0.0725
     64 H29         3.7703   -3.1244   -1.5692 H         1 <0>         0.0839
     65 H30         0.9344   -2.6826   -4.9846 H         1 <0>         0.4531
     66 H31         8.4853   -2.1751   -5.5460 H         1 <0>         0.4798
     67 H32         9.7660   -2.8925   -4.6196 H         1 <0>         0.4881
     68 H33         8.8117   -1.4610   -1.4259 H         1 <0>         0.4801
     69 H34         9.9599   -2.4833   -2.2412 H         1 <0>         0.4806
     70 H35         6.8639   -0.7306   -4.4123 H         1 <0>         0.4689
     71 H36         1.9407   -1.3323   -3.1385 H         1 <0>         0.4505
     72 H37         0.5902   -1.1952    2.4913 H         1 <0>         0.4443
@<TRIPOS>BOND
     1    1    2 ar
     2    1    3 ar
     3    2    4 ar
     4    3    6 ar
     5    4    5 ar
     6    4   10 1
     7    5    6 ar
     8    5   24 1
     9    6   35 1
    10    7   15 1
    11    7   30 2
    12    7   34 1
    13    8   23 1
    14    8   25 am
    15    8   31 2
    16    9   26 1
    17    9   27 1
    18    9   28 1
    19   10   16 1
    20   11   13 1
    21   11   17 1
    22   12   15 1
    23   12   17 1
    24   13   25 1
    25   14   16 1
    26   14   24 1
    27   15   25 1
    28   16   18 1
    29   17   19 1
    30   20   21 1
    31   20   22 1
    32   21   23 1
    33   22   28 1
    34   23   29 1
    35   29   35 1
    36   32   35 2
    37   33   35 2
    38    1   36 1
    39    2   37 1
    40    3   38 1
    41   10   39 1
    42   10   40 1
    43   11   41 1
    44   11   42 1
    45   12   43 1
    46   12   44 1
    47   13   45 1
    48   13   46 1
    49   14   47 1
    50   14   48 1
    51   15   49 1
    52   16   50 1
    53   17   51 1
    54   18   52 1
    55   18   53 1
    56   18   54 1
    57   19   55 1
    58   19   56 1
    59   19   57 1
    60   20   58 1
    61   20   59 1
    62   21   60 1
    63   21   61 1
    64   22   62 1
    65   22   63 1
    66   23   64 1
    67   24   65 1
    68   26   66 1
    69   26   67 1
    70   27   68 1
    71   27   69 1
    72   28   70 1
    73   29   71 1
    74   34   72 1
@<TRIPOS>MOLECULE
1dwc_ligand_269
   72    74     0     0     0
SMALL
USER_CHARGES

mmff94s_NoEstat = 80.69
@<TRIPOS>ATOM
      1 C1         -0.4870   -4.5759    0.1636 C.ar      1 <0>        -0.1945
      2 C2          0.3882   -5.3449    0.9279 C.ar      1 <0>        -0.0294
      3 C3         -0.0840   -4.0945   -1.0785 C.ar      1 <0>        -0.0143
      4 C4          1.6731   -5.6407    0.4508 C.ar      1 <0>        -0.1552
      5 C5          2.0990   -5.1329   -0.7928 C.ar      1 <0>         0.3076
      6 C6          1.1982   -4.3739   -1.5539 C.ar      1 <0>        -0.4908
      7 C7          2.6281   -1.3042    2.5638 C.2       1 <0>         0.5994
      8 C8          2.9466   -1.3973   -0.6457 C.2       1 <0>         0.6462
      9 C9          4.9528    0.1036   -6.2734 C.cat     1 <0>         0.6305
     10 C10         2.6110   -6.4693    1.2956 C.3       1 <0>        -0.0319
     11 C11         5.7543   -2.0741    1.7663 C.3       1 <0>        -0.0918
     12 C12         4.6161    0.1433    2.3333 C.3       1 <0>        -0.0841
     13 C13         5.2430   -1.7129    0.3758 C.3       1 <0>         0.0870
     14 C14         4.3643   -6.0331   -0.4427 C.3       1 <0>         0.2023
     15 C15         3.4337   -0.4666    1.5844 C.3       1 <0>         0.0778
     16 C16         3.7208   -7.1047    0.4435 C.3       1 <0>        -0.0746
     17 C17         5.6648   -0.9011    2.7560 C.3       1 <0>        -0.0681
     18 C18         4.7636   -7.7830    1.3277 C.3       1 <0>        -0.0944
     19 C19         7.0265   -0.2323    2.9523 C.3       1 <0>        -0.0918
     20 C20         4.0666    0.0061   -3.0917 C.3       1 <0>        -0.1192
     21 C21         4.5564   -1.3488   -2.5679 C.3       1 <0>        -0.0916
     22 C22         5.1498    0.7503   -3.8628 C.3       1 <0>         0.1883
     23 C23         3.4544   -2.1251   -1.8653 C.3       1 <0>         0.1952
     24 N1          3.3660   -5.4103   -1.2913 N.pl3     1 <0>        -0.7670
     25 N2          3.8547   -1.2301    0.4039 N.am      1 <0>        -0.4509
     26 N3          5.3941   -0.6210   -7.3756 N.pl3     1 <0>        -0.8477
     27 N4          3.8552    0.9464   -6.4114 N.pl3     1 <0>        -0.8633
     28 N5          5.5893    0.0019   -5.0317 N.pl3     1 <0>        -0.7419
     29 N6          2.2741   -2.2179   -2.7432 N.pl3     1 <0>        -0.8860
     30 O1          2.1401   -0.8907    3.6051 O.2       1 <0>        -0.5199
     31 O2          1.7818   -0.9917   -0.6208 O.2       1 <0>        -0.6131
     32 O3          2.6686   -4.5798   -3.6918 O.2       1 <0>        -0.6576
     33 O4          0.3811   -3.5494   -3.8650 O.2       1 <0>        -0.6482
     34 O5          2.5235   -2.5830    2.1269 O.3       1 <0>        -0.6303
     35 S1          1.6226   -3.7401   -3.1398 S.o2      1 <0>         1.5193
     36 H1         -1.4838   -4.3554    0.5354 H         1 <0>         0.1426
     37 H2          0.0637   -5.7192    1.8959 H         1 <0>         0.1398
     38 H3         -0.7593   -3.4996   -1.6852 H         1 <0>         0.1599
     39 H4          3.0465   -5.8195    2.0653 H         1 <0>         0.0574
     40 H5          2.0518   -7.2634    1.8055 H         1 <0>         0.0629
     41 H6          5.1450   -2.9020    2.1525 H         1 <0>         0.0614
     42 H7          6.7810   -2.4531    1.7029 H         1 <0>         0.0593
     43 H8          5.0903    0.8874    1.6785 H         1 <0>         0.0841
     44 H9          4.2733    0.6894    3.2215 H         1 <0>         0.0679
     45 H10         5.8537   -0.9171   -0.0665 H         1 <0>         0.0826
     46 H11         5.3167   -2.5850   -0.2811 H         1 <0>         0.0383
     47 H12         4.8493   -5.2648    0.1722 H         1 <0>         0.0556
     48 H13         5.1400   -6.4799   -1.0745 H         1 <0>         0.0415
     49 H14         2.7622    0.3365    1.2577 H         1 <0>         0.0851
     50 H15         3.2738   -7.8730   -0.2019 H         1 <0>         0.0639
     51 H16         5.3768   -1.3130    3.7317 H         1 <0>         0.0584
     52 H17         5.4090   -8.4341    0.7304 H         1 <0>         0.0401
     53 H18         5.3914   -7.0367    1.8236 H         1 <0>         0.0440
     54 H19         4.2783   -8.3911    2.0970 H         1 <0>         0.0459
     55 H20         7.5288   -0.6354    3.8367 H         1 <0>         0.0456
     56 H21         7.6683   -0.4045    2.0831 H         1 <0>         0.0366
     57 H22         6.9087    0.8473    3.0852 H         1 <0>         0.0474
     58 H23         3.1961   -0.1462   -3.7411 H         1 <0>         0.0800
     59 H24         3.7428    0.6319   -2.2522 H         1 <0>         0.0681
     60 H25         5.4094   -1.1917   -1.8946 H         1 <0>         0.0740
     61 H26         4.9285   -1.9502   -3.4070 H         1 <0>         0.0631
     62 H27         6.0226    0.9442   -3.2312 H         1 <0>         0.0970
     63 H28         4.7647    1.7133   -4.2128 H         1 <0>         0.0725
     64 H29         3.7703   -3.1244   -1.5692 H         1 <0>         0.0839
     65 H30         3.6532   -4.9620   -2.1525 H         1 <0>         0.4531
     66 H31         6.1929   -1.2474   -7.3223 H         1 <0>         0.4798
     67 H32         4.9258   -0.5407   -8.2753 H         1 <0>         0.4881
     68 H33         3.5064    1.4907   -5.6261 H         1 <0>         0.4801
     69 H34         3.3717    1.0398   -7.3014 H         1 <0>         0.4806
     70 H35         6.3922   -0.6250   -4.9615 H         1 <0>         0.4689
     71 H36         1.6613   -1.3957   -2.7560 H         1 <0>         0.4505
     72 H37         2.0077   -3.1411    2.7472 H         1 <0>         0.4443
@<TRIPOS>BOND
     1    1    2 ar
     2    1    3 ar
     3    2    4 ar
     4    3    6 ar
     5    4    5 ar
     6    4   10 1
     7    5    6 ar
     8    5   24 1
     9    6   35 1
    10    7   15 1
    11    7   30 2
    12    7   34 1
    13    8   23 1
    14    8   25 am
    15    8   31 2
    16    9   26 1
    17    9   27 1
    18    9   28 1
    19   10   16 1
    20   11   13 1
    21   11   17 1
    22   12   15 1
    23   12   17 1
    24   13   25 1
    25   14   16 1
    26   14   24 1
    27   15   25 1
    28   16   18 1
    29   17   19 1
    30   20   21 1
    31   20   22 1
    32   21   23 1
    33   22   28 1
    34   23   29 1
    35   29   35 1
    36   32   35 2
    37   33   35 2
    38    1   36 1
    39    2   37 1
    40    3   38 1
    41   10   39 1
    42   10   40 1
    43   11   41 1
    44   11   42 1
    45   12   43 1
    46   12   44 1
    47   13   45 1
    48   13   46 1
    49   14   47 1
    50   14   48 1
    51   15   49 1
    52   16   50 1
    53   17   51 1
    54   18   52 1
    55   18   53 1
    56   18   54 1
    57   19   55 1
    58   19   56 1
    59   19   57 1
    60   20   58 1
    61   20   59 1
    62   21   60 1
    63   21   61 1
    64   22   62 1
    65   22   63 1
    66   23   64 1
    67   24   65 1
    68   26   66 1
    69   26   67 1
    70   27   68 1
    71   27   69 1
    72   28   70 1
    73   29   71 1
    74   34   72 1
@<TRIPOS>MOLECULE
1dwc_ligand_270
   72    74     0     0     0
SMALL
USER_CHARGES

mmff94s_NoEstat = 80.69
@<TRIPOS>ATOM
      1 C1          1.6845   -5.9778    0.1844 C.ar      1 <0>        -0.1945
      2 C2          0.6520   -5.4496    0.9566 C.ar      1 <0>        -0.0294
      3 C3          1.9606   -5.4374   -1.0681 C.ar      1 <0>        -0.0143
      4 C4         -0.1093   -4.3725    0.4806 C.ar      1 <0>        -0.1552
      5 C5          0.1450   -3.8386   -0.7984 C.ar      1 <0>         0.3076
      6 C6          1.1982   -4.3739   -1.5539 C.ar      1 <0>        -0.4908
      7 C7          2.4038   -0.4910    2.4030 C.2       1 <0>         0.5994
      8 C8          2.9466   -1.3973   -0.6457 C.2       1 <0>         0.6462
      9 C9          8.0574   -3.3396   -2.7281 C.cat     1 <0>         0.6305
     10 C10        -1.2292   -3.8175    1.3278 C.3       1 <0>        -0.0319
     11 C11         3.9178   -3.4419    2.3602 C.3       1 <0>        -0.0918
     12 C12         4.8012   -1.0545    2.5913 C.3       1 <0>        -0.0841
     13 C13         4.0430   -3.0960    0.8803 C.3       1 <0>         0.0870
     14 C14        -1.7931   -2.3309   -0.6108 C.3       1 <0>         0.2023
     15 C15         3.6790   -0.7248    1.6100 C.3       1 <0>         0.0778
     16 C16        -1.5940   -2.3850    0.9075 C.3       1 <0>        -0.0746
     17 C17         4.6242   -2.4243    3.2705 C.3       1 <0>        -0.0681
     18 C18        -2.8431   -1.9049    1.6414 C.3       1 <0>        -0.0944
     19 C19         5.9763   -2.9527    3.7531 C.3       1 <0>        -0.0918
     20 C20         5.1203   -2.1076   -3.7746 C.3       1 <0>        -0.1192
     21 C21         4.5564   -1.3488   -2.5679 C.3       1 <0>        -0.0916
     22 C22         5.6479   -3.4850   -3.3924 C.3       1 <0>         0.1883
     23 C23         3.4544   -2.1251   -1.8653 C.3       1 <0>         0.1952
     24 N1         -0.5924   -2.7711   -1.2958 N.pl3     1 <0>        -0.7670
     25 N2          3.5192   -1.7560    0.5781 N.am      1 <0>        -0.4509
     26 N3          9.0442   -3.2560   -1.7514 N.pl3     1 <0>        -0.8477
     27 N4          8.4299   -3.3643   -4.0678 N.pl3     1 <0>        -0.8633
     28 N5          6.7009   -3.3994   -2.3908 N.pl3     1 <0>        -0.7419
     29 N6          2.2741   -2.2179   -2.7432 N.pl3     1 <0>        -0.8860
     30 O1          2.2729    0.3351    3.2940 O.2       1 <0>        -0.5199
     31 O2          2.0685   -0.5400   -0.7710 O.2       1 <0>        -0.6131
     32 O3          2.6686   -4.5798   -3.6918 O.2       1 <0>        -0.6576
     33 O4          0.3811   -3.5494   -3.8650 O.2       1 <0>        -0.6482
     34 O5          1.4223   -1.3294    1.9894 O.3       1 <0>        -0.6303
     35 S1          1.6226   -3.7401   -3.1398 S.o2      1 <0>         1.5193
     36 H1          2.2754   -6.8081    0.5612 H         1 <0>         0.1426
     37 H2          0.4453   -5.8762    1.9353 H         1 <0>         0.1398
     38 H3          2.7663   -5.8367   -1.6758 H         1 <0>         0.1599
     39 H4         -2.0994   -4.4781    1.2245 H         1 <0>         0.0574
     40 H5         -0.9335   -3.8165    2.3842 H         1 <0>         0.0629
     41 H6          2.8510   -3.4591    2.6203 H         1 <0>         0.0614
     42 H7          4.2939   -4.4553    2.5428 H         1 <0>         0.0593
     43 H8          5.7524   -1.0436    2.0413 H         1 <0>         0.0841
     44 H9          4.8832   -0.2779    3.3625 H         1 <0>         0.0679
     45 H10         5.0934   -3.1114    0.5668 H         1 <0>         0.0826
     46 H11         3.5122   -3.8428    0.2819 H         1 <0>         0.0383
     47 H12        -2.6365   -2.9647   -0.9116 H         1 <0>         0.0556
     48 H13        -2.0279   -1.3080   -0.9257 H         1 <0>         0.0415
     49 H14         3.9015    0.2290    1.1168 H         1 <0>         0.0851
     50 H15        -0.7654   -1.7164    1.1777 H         1 <0>         0.0639
     51 H16         4.0032   -2.2947    4.1661 H         1 <0>         0.0584
     52 H17        -2.9604   -0.8225    1.5328 H         1 <0>         0.0401
     53 H18        -3.7366   -2.3905    1.2379 H         1 <0>         0.0440
     54 H19        -2.7758   -2.1387    2.7081 H         1 <0>         0.0459
     55 H20         5.8782   -3.4157    4.7396 H         1 <0>         0.0456
     56 H21         6.3665   -3.7022    3.0580 H         1 <0>         0.0366
     57 H22         6.7034   -2.1384    3.8257 H         1 <0>         0.0474
     58 H23         4.3389   -2.2150   -4.5365 H         1 <0>         0.0800
     59 H24         5.9381   -1.5325   -4.2238 H         1 <0>         0.0681
     60 H25         4.1906   -0.3664   -2.8945 H         1 <0>         0.0740
     61 H26         5.3633   -1.1575   -1.8491 H         1 <0>         0.0631
     62 H27         6.0463   -4.0122   -4.2651 H         1 <0>         0.0970
     63 H28         4.8397   -4.0910   -2.9708 H         1 <0>         0.0725
     64 H29         3.7703   -3.1244   -1.5692 H         1 <0>         0.0839
     65 H30        -0.4235   -2.4715   -2.2481 H         1 <0>         0.4531
     66 H31         8.8191   -3.2331   -0.7604 H         1 <0>         0.4798
     67 H32        10.0284   -3.2123   -2.0054 H         1 <0>         0.4881
     68 H33         7.7343   -3.4249   -4.8074 H         1 <0>         0.4801
     69 H34         9.4082   -3.3235   -4.3431 H         1 <0>         0.4806
     70 H35         6.4587   -3.3794   -1.3990 H         1 <0>         0.4689
     71 H36         1.6613   -1.3957   -2.7560 H         1 <0>         0.4505
     72 H37         0.5902   -1.1952    2.4913 H         1 <0>         0.4443
@<TRIPOS>BOND
     1    1    2 ar
     2    1    3 ar
     3    2    4 ar
     4    3    6 ar
     5    4    5 ar
     6    4   10 1
     7    5    6 ar
     8    5   24 1
     9    6   35 1
    10    7   15 1
    11    7   30 2
    12    7   34 1
    13    8   23 1
    14    8   25 am
    15    8   31 2
    16    9   26 1
    17    9   27 1
    18    9   28 1
    19   10   16 1
    20   11   13 1
    21   11   17 1
    22   12   15 1
    23   12   17 1
    24   13   25 1
    25   14   16 1
    26   14   24 1
    27   15   25 1
    28   16   18 1
    29   17   19 1
    30   20   21 1
    31   20   22 1
    32   21   23 1
    33   22   28 1
    34   23   29 1
    35   29   35 1
    36   32   35 2
    37   33   35 2
    38    1   36 1
    39    2   37 1
    40    3   38 1
    41   10   39 1
    42   10   40 1
    43   11   41 1
    44   11   42 1
    45   12   43 1
    46   12   44 1
    47   13   45 1
    48   13   46 1
    49   14   47 1
    50   14   48 1
    51   15   49 1
    52   16   50 1
    53   17   51 1
    54   18   52 1
    55   18   53 1
    56   18   54 1
    57   19   55 1
    58   19   56 1
    59   19   57 1
    60   20   58 1
    61   20   59 1
    62   21   60 1
    63   21   61 1
    64   22   62 1
    65   22   63 1
    66   23   64 1
    67   24   65 1
    68   26   66 1
    69   26   67 1
    70   27   68 1
    71   27   69 1
    72   28   70 1
    73   29   71 1
    74   34   72 1
@<TRIPOS>MOLECULE
1dwc_ligand_271
   72    74     0     0     0
SMALL
USER_CHARGES

mmff94s_NoEstat = 80.72
@<TRIPOS>ATOM
      1 C1          7.4663   -1.7419   -5.0555 C.ar      1 <0>        -0.1945
      2 C2          7.8189   -3.0367   -5.4300 C.ar      1 <0>        -0.0294
      3 C3          6.9552   -1.5029   -3.7834 C.ar      1 <0>        -0.0143
      4 C4          7.6581   -4.1030   -4.5334 C.ar      1 <0>        -0.1552
      5 C5          7.1684   -3.8650   -3.2343 C.ar      1 <0>         0.3076
      6 C6          6.8044   -2.5574   -2.8813 C.ar      1 <0>        -0.4908
      7 C7          2.8752    1.3115    1.1058 C.2       1 <0>         0.5994
      8 C8          2.9466   -1.3973   -0.6457 C.2       1 <0>         0.6462
      9 C9         -0.2536   -7.2081   -1.3618 C.cat     1 <0>         0.6305
     10 C10         8.0535   -5.4978   -4.9550 C.3       1 <0>        -0.0319
     11 C11         2.3641    2.0271   -2.0925 C.3       1 <0>        -0.0918
     12 C12         0.7649    1.6065   -0.1433 C.3       1 <0>        -0.0841
     13 C13         2.2856    0.5067   -2.1800 C.3       1 <0>         0.0870
     14 C14         7.5357   -6.2183   -2.6043 C.3       1 <0>         0.2023
     15 C15         1.8211    0.5897    0.2827 C.3       1 <0>         0.0778
     16 C16         7.3986   -6.5839   -4.0862 C.3       1 <0>        -0.0746
     17 C17         1.2898    2.6259   -1.1701 C.3       1 <0>        -0.0681
     18 C18         5.9378   -6.8286   -4.4814 C.3       1 <0>        -0.0944
     19 C19         0.1276    3.2108   -1.9746 C.3       1 <0>        -0.0918
     20 C20         2.0376   -4.1819   -1.4375 C.3       1 <0>        -0.1192
     21 C21         2.4114   -3.0756   -2.4306 C.3       1 <0>        -0.0916
     22 C22         1.0502   -5.1786   -2.0318 C.3       1 <0>         0.1883
     23 C23         3.4544   -2.1251   -1.8653 C.3       1 <0>         0.1952
     24 N1          6.9914   -4.9024   -2.3274 N.pl3     1 <0>        -0.7670
     25 N2          2.3949   -0.1309   -0.8598 N.am      1 <0>        -0.4509
     26 N3         -0.5855   -8.1838   -0.4275 N.pl3     1 <0>        -0.8477
     27 N4         -0.8674   -7.2277   -2.6095 N.pl3     1 <0>        -0.8633
     28 N5          0.6828   -6.2099   -1.0722 N.pl3     1 <0>        -0.7419
     29 N6          4.6097   -2.8934   -1.3678 N.pl3     1 <0>        -0.8860
     30 O1          4.0701    1.3352    0.8507 O.2       1 <0>        -0.5199
     31 O2          3.0377   -1.9312    0.4627 O.2       1 <0>        -0.6131
     32 O3          6.9529   -2.8526   -0.2994 O.2       1 <0>        -0.6576
     33 O4          5.9925   -0.7285   -1.2427 O.2       1 <0>        -0.6482
     34 O5          2.3100    1.9293    2.1718 O.3       1 <0>        -0.6303
     35 S1          6.1490   -2.1694   -1.2948 S.o2      1 <0>         1.5193
     36 H1          7.5871   -0.9204   -5.7565 H         1 <0>         0.1426
     37 H2          8.2148   -3.2146   -6.4271 H         1 <0>         0.1398
     38 H3          6.6714   -0.4992   -3.4825 H         1 <0>         0.1599
     39 H4          7.7935   -5.6635   -6.0077 H         1 <0>         0.0574
     40 H5          9.1448   -5.5757   -4.8678 H         1 <0>         0.0629
     41 H6          3.3521    2.2982   -1.6971 H         1 <0>         0.0614
     42 H7          2.3049    2.4652   -3.0956 H         1 <0>         0.0593
     43 H8         -0.0830    1.0592   -0.5778 H         1 <0>         0.0841
     44 H9          0.3696    2.1440    0.7282 H         1 <0>         0.0679
     45 H10         1.3285    0.1928   -2.6129 H         1 <0>         0.0826
     46 H11         3.0787    0.1346   -2.8358 H         1 <0>         0.0383
     47 H12         7.0247   -6.9593   -1.9795 H         1 <0>         0.0556
     48 H13         8.5943   -6.2318   -2.3170 H         1 <0>         0.0415
     49 H14         1.3638   -0.1412    0.9605 H         1 <0>         0.0851
     50 H15         7.9285   -7.5282   -4.2621 H         1 <0>         0.0639
     51 H16         1.7477    3.4645   -0.6301 H         1 <0>         0.0584
     52 H17         5.6097   -6.0886   -5.2174 H         1 <0>         0.0401
     53 H18         5.8194   -7.8248   -4.9181 H         1 <0>         0.0440
     54 H19         5.2856   -6.7563   -3.6060 H         1 <0>         0.0459
     55 H20         0.4103    4.1714   -2.4154 H         1 <0>         0.0456
     56 H21        -0.1604    2.5322   -2.7831 H         1 <0>         0.0366
     57 H22        -0.7432    3.3698   -1.3317 H         1 <0>         0.0474
     58 H23         2.9446   -4.7113   -1.1217 H         1 <0>         0.0800
     59 H24         1.5893   -3.7381   -0.5411 H         1 <0>         0.0681
     60 H25         1.5058   -2.5277   -2.7226 H         1 <0>         0.0740
     61 H26         2.8104   -3.5289   -3.3468 H         1 <0>         0.0631
     62 H27         1.4667   -5.6672   -2.9184 H         1 <0>         0.0970
     63 H28         0.1320   -4.6626   -2.3297 H         1 <0>         0.0725
     64 H29         3.7902   -1.3903   -2.5956 H         1 <0>         0.0839
     65 H30         6.7085   -4.6707   -1.3830 H         1 <0>         0.4531
     66 H31        -0.1613   -8.2101    0.4959 H         1 <0>         0.4798
     67 H32        -1.2672   -8.9065   -0.6465 H         1 <0>         0.4881
     68 H33        -0.6480   -6.5297   -3.3160 H         1 <0>         0.4801
     69 H34        -1.5528   -7.9404   -2.8480 H         1 <0>         0.4806
     70 H35         1.1164   -6.2217   -0.1478 H         1 <0>         0.4689
     71 H36         4.3912   -3.6637   -0.7270 H         1 <0>         0.4505
     72 H37         2.9754    2.4001    2.7176 H         1 <0>         0.4443
@<TRIPOS>BOND
     1    1    2 ar
     2    1    3 ar
     3    2    4 ar
     4    3    6 ar
     5    4    5 ar
     6    4   10 1
     7    5    6 ar
     8    5   24 1
     9    6   35 1
    10    7   15 1
    11    7   30 2
    12    7   34 1
    13    8   23 1
    14    8   25 am
    15    8   31 2
    16    9   26 1
    17    9   27 1
    18    9   28 1
    19   10   16 1
    20   11   13 1
    21   11   17 1
    22   12   15 1
    23   12   17 1
    24   13   25 1
    25   14   16 1
    26   14   24 1
    27   15   25 1
    28   16   18 1
    29   17   19 1
    30   20   21 1
    31   20   22 1
    32   21   23 1
    33   22   28 1
    34   23   29 1
    35   29   35 1
    36   32   35 2
    37   33   35 2
    38    1   36 1
    39    2   37 1
    40    3   38 1
    41   10   39 1
    42   10   40 1
    43   11   41 1
    44   11   42 1
    45   12   43 1
    46   12   44 1
    47   13   45 1
    48   13   46 1
    49   14   47 1
    50   14   48 1
    51   15   49 1
    52   16   50 1
    53   17   51 1
    54   18   52 1
    55   18   53 1
    56   18   54 1
    57   19   55 1
    58   19   56 1
    59   19   57 1
    60   20   58 1
    61   20   59 1
    62   21   60 1
    63   21   61 1
    64   22   62 1
    65   22   63 1
    66   23   64 1
    67   24   65 1
    68   26   66 1
    69   26   67 1
    70   27   68 1
    71   27   69 1
    72   28   70 1
    73   29   71 1
    74   34   72 1
@<TRIPOS>MOLECULE
1dwc_ligand_272
   72    74     0     0     0
SMALL
USER_CHARGES

mmff94s_NoEstat = 80.74
@<TRIPOS>ATOM
      1 C1          2.5116   -3.9380   -0.5557 C.ar      1 <0>        -0.1945
      2 C2          3.7426   -3.3274   -0.3259 C.ar      1 <0>        -0.0294
      3 C3          1.7913   -4.4690    0.5101 C.ar      1 <0>        -0.0143
      4 C4          4.2632   -3.2477    0.9738 C.ar      1 <0>        -0.1552
      5 C5          3.5271   -3.7571    2.0614 C.ar      1 <0>         0.3076
      6 C6          2.2973   -4.3819    1.8081 C.ar      1 <0>        -0.4908
      7 C7          2.8527    0.1371    0.9779 C.2       1 <0>         0.5994
      8 C8          0.8654   -1.4427    3.2413 C.2       1 <0>         0.6462
      9 C9         -4.5827   -3.2129    6.2808 C.cat     1 <0>         0.6305
     10 C10         5.5952   -2.5748    1.2036 C.3       1 <0>        -0.0319
     11 C11        -0.8928    0.2697    0.5041 C.3       1 <0>        -0.0918
     12 C12         0.9933    1.7382    1.2472 C.3       1 <0>        -0.0841
     13 C13        -0.1537   -0.9439    1.0534 C.3       1 <0>         0.0870
     14 C14         5.1895   -2.8951    3.6625 C.3       1 <0>         0.2023
     15 C15         1.6922    0.5304    1.8770 C.3       1 <0>         0.0778
     16 C16         6.2338   -2.9744    2.5437 C.3       1 <0>        -0.0746
     17 C17         0.0902    1.3584    0.0661 C.3       1 <0>        -0.0681
     18 C18         6.8920   -4.3571    2.4737 C.3       1 <0>        -0.0944
     19 C19        -0.6553    2.5823   -0.4626 C.3       1 <0>        -0.0918
     20 C20        -1.0866   -2.1427    5.4567 C.3       1 <0>        -0.1192
     21 C21        -1.3133   -2.4479    3.9716 C.3       1 <0>        -0.0916
     22 C22        -2.3970   -1.9935    6.2196 C.3       1 <0>         0.1883
     23 C23        -0.0078   -2.6730    3.2260 C.3       1 <0>         0.1952
     24 N1          4.0208   -3.6991    3.3587 N.pl3     1 <0>        -0.7670
     25 N2          0.7744   -0.5925    2.1333 N.am      1 <0>        -0.4509
     26 N3         -5.3150   -4.3946    6.2340 N.pl3     1 <0>        -0.8477
     27 N4         -5.2542   -2.0049    6.4353 N.pl3     1 <0>        -0.8633
     28 N5         -3.1876   -3.2152    6.1760 N.pl3     1 <0>        -0.7419
     29 N6          0.7961   -3.6905    3.9267 N.pl3     1 <0>        -0.8860
     30 O1          2.8051   -0.7141    0.1025 O.2       1 <0>        -0.5199
     31 O2          1.6103   -1.2468    4.2054 O.2       1 <0>        -0.6131
     32 O3          0.1838   -5.7392    2.4909 O.2       1 <0>        -0.6576
     33 O4          2.2286   -5.8263    3.9523 O.2       1 <0>        -0.6482
     34 O5          3.9586    0.8603    1.2799 O.3       1 <0>        -0.6303
     35 S1          1.3247   -5.0804    3.0977 S.o2      1 <0>         1.5193
     36 H1          2.1160   -4.0026   -1.5657 H         1 <0>         0.1426
     37 H2          4.2999   -2.9178   -1.1651 H         1 <0>         0.1398
     38 H3          0.8339   -4.9524    0.3425 H         1 <0>         0.1599
     39 H4          6.2849   -2.8099    0.3837 H         1 <0>         0.0574
     40 H5          5.4270   -1.4903    1.1935 H         1 <0>         0.0629
     41 H6         -1.5189   -0.0351   -0.3429 H         1 <0>         0.0614
     42 H7         -1.5653    0.6666    1.2754 H         1 <0>         0.0593
     43 H8          0.3777    2.2219    2.0180 H         1 <0>         0.0841
     44 H9          1.7308    2.4835    0.9230 H         1 <0>         0.0679
     45 H10        -0.8813   -1.6856    1.3989 H         1 <0>         0.0826
     46 H11         0.4381   -1.4202    0.2624 H         1 <0>         0.0383
     47 H12         5.6214   -3.2300    4.6122 H         1 <0>         0.0556
     48 H13         4.8765   -1.8531    3.8022 H         1 <0>         0.0415
     49 H14         2.1497    0.8499    2.8187 H         1 <0>         0.0851
     50 H15         7.0369   -2.2610    2.7660 H         1 <0>         0.0639
     51 H16         0.7106    0.9707   -0.7514 H         1 <0>         0.0584
     52 H17         6.6629   -4.8441    1.5211 H         1 <0>         0.0401
     53 H18         7.9790   -4.2705    2.5637 H         1 <0>         0.0440
     54 H19         6.5291   -4.9970    3.2836 H         1 <0>         0.0459
     55 H20        -0.1292    3.5013   -0.1875 H         1 <0>         0.0456
     56 H21        -0.7336    2.5434   -1.5532 H         1 <0>         0.0366
     57 H22        -1.6660    2.6262   -0.0459 H         1 <0>         0.0474
     58 H23        -0.4913   -2.9455    5.9081 H         1 <0>         0.0800
     59 H24        -0.5143   -1.2136    5.5600 H         1 <0>         0.0681
     60 H25        -1.8840   -1.6286    3.5148 H         1 <0>         0.0740
     61 H26        -1.9315   -3.3495    3.8758 H         1 <0>         0.0631
     62 H27        -3.0022   -1.1781    5.8107 H         1 <0>         0.0970
     63 H28        -2.1935   -1.7693    7.2716 H         1 <0>         0.0725
     64 H29        -0.1638   -2.9774    2.1921 H         1 <0>         0.0839
     65 H30         3.4221   -4.0102    4.1139 H         1 <0>         0.4531
     66 H31        -4.8675   -5.3002    6.1203 H         1 <0>         0.4798
     67 H32        -6.3295   -4.3840    6.3104 H         1 <0>         0.4881
     68 H33        -4.7498   -1.1225    6.4734 H         1 <0>         0.4801
     69 H34        -6.2677   -1.9724    6.5154 H         1 <0>         0.4806
     70 H35        -2.7230   -4.1175    6.0634 H         1 <0>         0.4689
     71 H36         1.3354   -3.3564    4.7325 H         1 <0>         0.4505
     72 H37         4.7205    0.6195    0.7108 H         1 <0>         0.4443
@<TRIPOS>BOND
     1    1    2 ar
     2    1    3 ar
     3    2    4 ar
     4    3    6 ar
     5    4    5 ar
     6    4   10 1
     7    5    6 ar
     8    5   24 1
     9    6   35 1
    10    7   15 1
    11    7   30 2
    12    7   34 1
    13    8   23 1
    14    8   25 am
    15    8   31 2
    16    9   26 1
    17    9   27 1
    18    9   28 1
    19   10   16 1
    20   11   13 1
    21   11   17 1
    22   12   15 1
    23   12   17 1
    24   13   25 1
    25   14   16 1
    26   14   24 1
    27   15   25 1
    28   16   18 1
    29   17   19 1
    30   20   21 1
    31   20   22 1
    32   21   23 1
    33   22   28 1
    34   23   29 1
    35   29   35 1
    36   32   35 2
    37   33   35 2
    38    1   36 1
    39    2   37 1
    40    3   38 1
    41   10   39 1
    42   10   40 1
    43   11   41 1
    44   11   42 1
    45   12   43 1
    46   12   44 1
    47   13   45 1
    48   13   46 1
    49   14   47 1
    50   14   48 1
    51   15   49 1
    52   16   50 1
    53   17   51 1
    54   18   52 1
    55   18   53 1
    56   18   54 1
    57   19   55 1
    58   19   56 1
    59   19   57 1
    60   20   58 1
    61   20   59 1
    62   21   60 1
    63   21   61 1
    64   22   62 1
    65   22   63 1
    66   23   64 1
    67   24   65 1
    68   26   66 1
    69   26   67 1
    70   27   68 1
    71   27   69 1
    72   28   70 1
    73   29   71 1
    74   34   72 1
@<TRIPOS>MOLECULE
1dwc_ligand_273
   72    74     0     0     0
SMALL
USER_CHARGES

mmff94s_NoEstat = 80.75
@<TRIPOS>ATOM
      1 C1         -3.3475   -6.3503    1.8791 C.ar      1 <0>        -0.1945
      2 C2         -3.9958   -5.9344    0.7180 C.ar      1 <0>        -0.0294
      3 C3         -2.9512   -5.4113    2.8268 C.ar      1 <0>        -0.0143
      4 C4         -4.2554   -4.5738    0.4999 C.ar      1 <0>        -0.1552
      5 C5         -3.8316   -3.6142    1.4408 C.ar      1 <0>         0.3076
      6 C6         -3.1944   -4.0540    2.6102 C.ar      1 <0>        -0.4908
      7 C7          2.0323   -3.0842    5.9821 C.2       1 <0>         0.5994
      8 C8          0.8654   -1.4427    3.2413 C.2       1 <0>         0.6462
      9 C9          0.2237   -3.7376   -2.9912 C.cat     1 <0>         0.6305
     10 C10        -4.9524   -4.1403   -0.7675 C.3       1 <0>        -0.0319
     11 C11         3.0911    0.4998    5.4298 C.3       1 <0>        -0.0918
     12 C12         1.5534   -0.8369    6.8842 C.3       1 <0>        -0.0841
     13 C13         2.8818   -0.5022    4.3015 C.3       1 <0>         0.0870
     14 C14        -4.5641   -1.7769   -0.0261 C.3       1 <0>         0.2023
     15 C15         1.2754   -1.7924    5.7207 C.3       1 <0>         0.0778
     16 C16        -5.5921   -2.7519   -0.6095 C.3       1 <0>        -0.0746
     17 C17         2.9339   -0.1724    6.7962 C.3       1 <0>        -0.0681
     18 C18        -6.1301   -2.2464   -1.9453 C.3       1 <0>        -0.0944
     19 C19         3.1216    0.8403    7.9242 C.3       1 <0>        -0.0918
     20 C20         0.0249   -2.8727    0.7002 C.3       1 <0>        -0.1192
     21 C21         0.3004   -3.5693    2.0376 C.3       1 <0>        -0.0916
     22 C22         0.2602   -3.7963   -0.4886 C.3       1 <0>         0.1883
     23 C23        -0.0078   -2.6730    3.2260 C.3       1 <0>         0.1952
     24 N1         -4.0757   -2.2595    1.2518 N.pl3     1 <0>        -0.7670
     25 N2          1.5999   -1.2067    4.4091 N.am      1 <0>        -0.4509
     26 N3         -0.0152   -3.0669   -4.1862 N.pl3     1 <0>        -0.8477
     27 N4          0.6744   -5.0526   -3.0302 N.pl3     1 <0>        -0.8633
     28 N5          0.0202   -3.1173   -1.7538 N.pl3     1 <0>        -0.7419
     29 N6         -1.3760   -2.1385    3.1042 N.pl3     1 <0>        -0.8860
     30 O1          2.8364   -3.5938    5.2160 O.2       1 <0>        -0.5199
     31 O2          0.8891   -0.7105    2.2483 O.2       1 <0>        -0.6131
     32 O3         -3.7495   -1.9880    4.0928 O.2       1 <0>        -0.6576
     33 O4         -2.1627   -3.7355    4.9602 O.2       1 <0>        -0.6482
     34 O5          1.6924   -3.6026    7.1875 O.3       1 <0>        -0.6303
     35 S1         -2.6746   -2.9347    3.8647 S.o2      1 <0>         1.5193
     36 H1         -3.1550   -7.4065    2.0458 H         1 <0>         0.1426
     37 H2         -4.3045   -6.6753   -0.0157 H         1 <0>         0.1398
     38 H3         -2.4509   -5.7242    3.7377 H         1 <0>         0.1599
     39 H4         -4.2148   -4.1296   -1.5800 H         1 <0>         0.0574
     40 H5         -5.7315   -4.8656   -1.0323 H         1 <0>         0.0629
     41 H6          4.0885    0.9467    5.3426 H         1 <0>         0.0614
     42 H7          2.3630    1.3153    5.3324 H         1 <0>         0.0593
     43 H8          0.7851   -0.0517    6.8776 H         1 <0>         0.0841
     44 H9          1.4567   -1.3607    7.8437 H         1 <0>         0.0679
     45 H10         2.9560    0.0148    3.3392 H         1 <0>         0.0826
     46 H11         3.6704   -1.2643    4.3172 H         1 <0>         0.0383
     47 H12        -3.7191   -1.6505   -0.7142 H         1 <0>         0.0556
     48 H13        -5.0170   -0.7893    0.1158 H         1 <0>         0.0415
     49 H14         0.2160   -2.0663    5.7460 H         1 <0>         0.0851
     50 H15        -6.4375   -2.8304    0.0874 H         1 <0>         0.0639
     51 H16         3.7104   -0.9392    6.9078 H         1 <0>         0.0584
     52 H17        -6.7909   -1.3877   -1.7933 H         1 <0>         0.0401
     53 H18        -5.3086   -1.9377   -2.5987 H         1 <0>         0.0440
     54 H19        -6.6976   -3.0320   -2.4531 H         1 <0>         0.0459
     55 H20         2.2527    0.8404    8.5891 H         1 <0>         0.0456
     56 H21         4.0086    0.5961    8.5164 H         1 <0>         0.0366
     57 H22         3.2450    1.8489    7.5186 H         1 <0>         0.0474
     58 H23        -1.0105   -2.5120    0.6824 H         1 <0>         0.0800
     59 H24         0.6776   -1.9980    0.5976 H         1 <0>         0.0681
     60 H25         1.3460   -3.9033    2.0652 H         1 <0>         0.0740
     61 H26        -0.3175   -4.4733    2.1109 H         1 <0>         0.0631
     62 H27        -0.3909   -4.6751   -0.4416 H         1 <0>         0.0970
     63 H28         1.2981   -4.1440   -0.4920 H         1 <0>         0.0725
     64 H29         0.1003   -3.1895    4.1787 H         1 <0>         0.0839
     65 H30        -3.6865   -1.6028    1.9171 H         1 <0>         0.4531
     66 H31        -0.3470   -2.1063   -4.2064 H         1 <0>         0.4798
     67 H32         0.1347   -3.5257   -5.0818 H         1 <0>         0.4881
     68 H33         0.8589   -5.5723   -2.1756 H         1 <0>         0.4801
     69 H34         0.8324   -5.5290   -3.9149 H         1 <0>         0.4806
     70 H35        -0.3110   -2.1514   -1.7574 H         1 <0>         0.4689
     71 H36        -1.4476   -1.1318    2.9219 H         1 <0>         0.4505
     72 H37         2.1696   -4.4391    7.3743 H         1 <0>         0.4443
@<TRIPOS>BOND
     1    1    2 ar
     2    1    3 ar
     3    2    4 ar
     4    3    6 ar
     5    4    5 ar
     6    4   10 1
     7    5    6 ar
     8    5   24 1
     9    6   35 1
    10    7   15 1
    11    7   30 2
    12    7   34 1
    13    8   23 1
    14    8   25 am
    15    8   31 2
    16    9   26 1
    17    9   27 1
    18    9   28 1
    19   10   16 1
    20   11   13 1
    21   11   17 1
    22   12   15 1
    23   12   17 1
    24   13   25 1
    25   14   16 1
    26   14   24 1
    27   15   25 1
    28   16   18 1
    29   17   19 1
    30   20   21 1
    31   20   22 1
    32   21   23 1
    33   22   28 1
    34   23   29 1
    35   29   35 1
    36   32   35 2
    37   33   35 2
    38    1   36 1
    39    2   37 1
    40    3   38 1
    41   10   39 1
    42   10   40 1
    43   11   41 1
    44   11   42 1
    45   12   43 1
    46   12   44 1
    47   13   45 1
    48   13   46 1
    49   14   47 1
    50   14   48 1
    51   15   49 1
    52   16   50 1
    53   17   51 1
    54   18   52 1
    55   18   53 1
    56   18   54 1
    57   19   55 1
    58   19   56 1
    59   19   57 1
    60   20   58 1
    61   20   59 1
    62   21   60 1
    63   21   61 1
    64   22   62 1
    65   22   63 1
    66   23   64 1
    67   24   65 1
    68   26   66 1
    69   26   67 1
    70   27   68 1
    71   27   69 1
    72   28   70 1
    73   29   71 1
    74   34   72 1
@<TRIPOS>MOLECULE
1dwc_ligand_274
   72    74     0     0     0
SMALL
USER_CHARGES

mmff94s_NoEstat = 80.77
@<TRIPOS>ATOM
      1 C1          4.7857   -3.3854   -6.6747 C.ar      1 <0>        -0.1945
      2 C2          4.2835   -2.4050   -7.5279 C.ar      1 <0>        -0.0294
      3 C3          4.0861   -3.7255   -5.5206 C.ar      1 <0>        -0.0143
      4 C4          3.0736   -1.7606   -7.2327 C.ar      1 <0>        -0.1552
      5 C5          2.3740   -2.0785   -6.0516 C.ar      1 <0>         0.3076
      6 C6          2.8878   -3.0788   -5.2136 C.ar      1 <0>        -0.4908
      7 C7          0.5484   -0.8946    1.4535 C.2       1 <0>         0.5994
      8 C8          2.9466   -1.3973   -0.6457 C.2       1 <0>         0.6462
      9 C9          6.5364    0.5009   -5.9324 C.cat     1 <0>         0.6305
     10 C10         2.5481   -0.6954   -8.1649 C.3       1 <0>        -0.0319
     11 C11         1.0071   -4.1523    1.0299 C.3       1 <0>        -0.0918
     12 C12         1.8830   -2.5004    2.7729 C.3       1 <0>        -0.0841
     13 C13         2.2320   -3.6460    0.2757 C.3       1 <0>         0.0870
     14 C14         0.7263   -0.3013   -6.4881 C.3       1 <0>         0.2023
     15 C15         1.9200   -1.5343    1.5913 C.3       1 <0>         0.0778
     16 C16         1.0380   -0.4809   -7.9775 C.3       1 <0>        -0.0746
     17 C17         1.0079   -3.7392    2.5107 C.3       1 <0>        -0.0681
     18 C18         0.5551    0.7196   -8.7869 C.3       1 <0>        -0.0944
     19 C19         1.4463   -4.8953    3.4115 C.3       1 <0>        -0.0918
     20 C20         4.0666    0.0061   -3.0917 C.3       1 <0>        -0.1192
     21 C21         4.5564   -1.3488   -2.5679 C.3       1 <0>        -0.0916
     22 C22         5.1498    0.7503   -3.8628 C.3       1 <0>         0.1883
     23 C23         3.4544   -2.1251   -1.8653 C.3       1 <0>         0.1952
     24 N1          1.1726   -1.4571   -5.7336 N.pl3     1 <0>        -0.7670
     25 N2          2.3654   -2.1840    0.3531 N.am      1 <0>        -0.4509
     26 N3          6.9409   -0.2356   -7.0409 N.pl3     1 <0>        -0.8477
     27 N4          7.0867    1.7598   -5.7173 N.pl3     1 <0>        -0.8633
     28 N5          5.5893    0.0019   -5.0317 N.pl3     1 <0>        -0.7419
     29 N6          2.2741   -2.2179   -2.7432 N.pl3     1 <0>        -0.8860
     30 O1         -0.0257   -0.2688    2.3322 O.2       1 <0>        -0.5199
     31 O2          3.0580   -0.1705   -0.5795 O.2       1 <0>        -0.6131
     32 O3          0.6499   -3.7277   -4.0534 O.2       1 <0>        -0.6576
     33 O4          2.8074   -4.6931   -3.1946 O.2       1 <0>        -0.6482
     34 O5          0.0400   -1.1141    0.2163 O.3       1 <0>        -0.6303
     35 S1          2.0591   -3.5786   -3.7438 S.o2      1 <0>         1.5193
     36 H1          5.7203   -3.8862   -6.9120 H         1 <0>         0.1426
     37 H2          4.8354   -2.1479   -8.4289 H         1 <0>         0.1398
     38 H3          4.4644   -4.4919   -4.8517 H         1 <0>         0.1599
     39 H4          3.0928    0.2363   -7.9655 H         1 <0>         0.0574
     40 H5          2.7429   -0.9806   -9.2061 H         1 <0>         0.0629
     41 H6          0.1116   -3.7326    0.5525 H         1 <0>         0.0614
     42 H7          0.9264   -5.2409    0.9288 H         1 <0>         0.0593
     43 H8          2.9117   -2.8226    2.9853 H         1 <0>         0.0841
     44 H9          1.5267   -1.9929    3.6785 H         1 <0>         0.0679
     45 H10         3.1493   -4.0774    0.6933 H         1 <0>         0.0826
     46 H11         2.1726   -3.9558   -0.7722 H         1 <0>         0.0383
     47 H12         1.2164    0.5993   -6.0977 H         1 <0>         0.0556
     48 H13        -0.3518   -0.1738   -6.3395 H         1 <0>         0.0415
     49 H14         2.6095   -0.7128    1.8202 H         1 <0>         0.0851
     50 H15         0.5073   -1.3704   -8.3432 H         1 <0>         0.0639
     51 H16        -0.0273   -3.5034    2.7887 H         1 <0>         0.0584
     52 H17        -0.5372    0.7259   -8.8506 H         1 <0>         0.0401
     53 H18         0.8784    1.6541   -8.3188 H         1 <0>         0.0440
     54 H19         0.9591    0.6854   -9.8032 H         1 <0>         0.0459
     55 H20         0.5753   -5.4296    3.8024 H         1 <0>         0.0456
     56 H21         2.0638   -5.6051    2.8530 H         1 <0>         0.0366
     57 H22         2.0303   -4.5225    4.2583 H         1 <0>         0.0474
     58 H23         3.1961   -0.1462   -3.7411 H         1 <0>         0.0800
     59 H24         3.7428    0.6319   -2.2522 H         1 <0>         0.0681
     60 H25         5.4094   -1.1917   -1.8946 H         1 <0>         0.0740
     61 H26         4.9285   -1.9502   -3.4070 H         1 <0>         0.0631
     62 H27         6.0226    0.9442   -3.2312 H         1 <0>         0.0970
     63 H28         4.7647    1.7133   -4.2128 H         1 <0>         0.0725
     64 H29         3.7703   -3.1244   -1.5692 H         1 <0>         0.0839
     65 H30         0.7458   -1.6637   -4.8389 H         1 <0>         0.4531
     66 H31         6.5676   -1.1605   -7.2371 H         1 <0>         0.4798
     67 H32         7.6308    0.1346   -7.6906 H         1 <0>         0.4881
     68 H33         6.8135    2.3249   -4.9169 H         1 <0>         0.4801
     69 H34         7.7763    2.1491   -6.3557 H         1 <0>         0.4806
     70 H35         5.2033   -0.9252   -5.2162 H         1 <0>         0.4689
     71 H36         1.4502   -1.6870   -2.4414 H         1 <0>         0.4505
     72 H37        -0.8473   -0.7100    0.1079 H         1 <0>         0.4443
@<TRIPOS>BOND
     1    1    2 ar
     2    1    3 ar
     3    2    4 ar
     4    3    6 ar
     5    4    5 ar
     6    4   10 1
     7    5    6 ar
     8    5   24 1
     9    6   35 1
    10    7   15 1
    11    7   30 2
    12    7   34 1
    13    8   23 1
    14    8   25 am
    15    8   31 2
    16    9   26 1
    17    9   27 1
    18    9   28 1
    19   10   16 1
    20   11   13 1
    21   11   17 1
    22   12   15 1
    23   12   17 1
    24   13   25 1
    25   14   16 1
    26   14   24 1
    27   15   25 1
    28   16   18 1
    29   17   19 1
    30   20   21 1
    31   20   22 1
    32   21   23 1
    33   22   28 1
    34   23   29 1
    35   29   35 1
    36   32   35 2
    37   33   35 2
    38    1   36 1
    39    2   37 1
    40    3   38 1
    41   10   39 1
    42   10   40 1
    43   11   41 1
    44   11   42 1
    45   12   43 1
    46   12   44 1
    47   13   45 1
    48   13   46 1
    49   14   47 1
    50   14   48 1
    51   15   49 1
    52   16   50 1
    53   17   51 1
    54   18   52 1
    55   18   53 1
    56   18   54 1
    57   19   55 1
    58   19   56 1
    59   19   57 1
    60   20   58 1
    61   20   59 1
    62   21   60 1
    63   21   61 1
    64   22   62 1
    65   22   63 1
    66   23   64 1
    67   24   65 1
    68   26   66 1
    69   26   67 1
    70   27   68 1
    71   27   69 1
    72   28   70 1
    73   29   71 1
    74   34   72 1
@<TRIPOS>MOLECULE
1dwc_ligand_275
   72    74     0     0     0
SMALL
USER_CHARGES

mmff94s_NoEstat = 80.80
@<TRIPOS>ATOM
      1 C1         -1.9204   -5.9597    0.9167 C.ar      1 <0>        -0.1945
      2 C2         -2.6129   -6.8721    1.7099 C.ar      1 <0>        -0.0294
      3 C3         -0.7171   -5.4239    1.3655 C.ar      1 <0>        -0.0143
      4 C4         -2.1063   -7.2516    2.9613 C.ar      1 <0>        -0.1552
      5 C5         -0.8748   -6.7358    3.4102 C.ar      1 <0>         0.3076
      6 C6         -0.2004   -5.8068    2.6044 C.ar      1 <0>        -0.4908
      7 C7         -1.4628    0.1636    1.3526 C.2       1 <0>         0.5994
      8 C8          0.8654   -1.4427    3.2413 C.2       1 <0>         0.6462
      9 C9         -5.5866   -1.9509    4.3621 C.cat     1 <0>         0.6305
     10 C10        -2.8672   -8.2479    3.8027 C.3       1 <0>        -0.0319
     11 C11         2.1918    0.8805    0.7195 C.3       1 <0>        -0.0918
     12 C12         0.2821   -0.3679   -0.3105 C.3       1 <0>        -0.0841
     13 C13         1.6113    0.6116    2.1020 C.3       1 <0>         0.0870
     14 C14        -0.9324   -8.1812    5.4045 C.3       1 <0>         0.2023
     15 C15        -0.2506   -0.7126    1.0828 C.3       1 <0>         0.0778
     16 C16        -2.4601   -8.2004    5.2844 C.3       1 <0>        -0.0746
     17 C17         1.0859    0.9390   -0.3376 C.3       1 <0>        -0.0681
     18 C18        -3.1055   -7.0187    6.0172 C.3       1 <0>        -0.0944
     19 C19         1.6740    1.1859   -1.7255 C.3       1 <0>        -0.0918
     20 C20        -2.2331   -3.6727    3.9110 C.3       1 <0>        -0.1192
     21 C21        -1.3133   -2.4479    3.9716 C.3       1 <0>        -0.0916
     22 C22        -3.5726   -3.4201    4.5920 C.3       1 <0>         0.1883
     23 C23        -0.0078   -2.6730    3.2260 C.3       1 <0>         0.1952
     24 N1         -0.3520   -7.0877    4.6483 N.pl3     1 <0>        -0.7670
     25 N2          0.7744   -0.5925    2.1333 N.am      1 <0>        -0.4509
     26 N3         -6.2639   -0.9089    3.7373 N.pl3     1 <0>        -0.8477
     27 N4         -6.1992   -2.6234    5.4140 N.pl3     1 <0>        -0.8633
     28 N5         -4.3046   -2.3352    3.9546 N.pl3     1 <0>        -0.7419
     29 N6          0.7961   -3.6905    3.9267 N.pl3     1 <0>        -0.8860
     30 O1         -1.4385    1.2323    1.9447 O.2       1 <0>        -0.5199
     31 O2          1.6103   -1.2468    4.2054 O.2       1 <0>        -0.6131
     32 O3          1.9670   -5.9819    4.0350 O.2       1 <0>        -0.6576
     33 O4          2.0121   -4.6764    1.8861 O.2       1 <0>        -0.6482
     34 O5         -2.5854   -0.4037    0.8474 O.3       1 <0>        -0.6303
     35 S1          1.3247   -5.0804    3.0977 S.o2      1 <0>         1.5193
     36 H1         -2.3209   -5.6644   -0.0494 H         1 <0>         0.1426
     37 H2         -3.5539   -7.2835    1.3524 H         1 <0>         0.1398
     38 H3         -0.1718   -4.7077    0.7589 H         1 <0>         0.1599
     39 H4         -3.9465   -8.0739    3.7129 H         1 <0>         0.0574
     40 H5         -2.6594   -9.2490    3.4036 H         1 <0>         0.0629
     41 H6          2.7495    1.8244    0.7335 H         1 <0>         0.0614
     42 H7          2.9066    0.0878    0.4640 H         1 <0>         0.0593
     43 H8          0.9336   -1.1873   -0.6438 H         1 <0>         0.0841
     44 H9         -0.5414   -0.3095   -1.0336 H         1 <0>         0.0679
     45 H10         2.4269    0.5309    2.8282 H         1 <0>         0.0826
     46 H11         0.9807    1.4504    2.4206 H         1 <0>         0.0383
     47 H12        -0.6332   -8.0929    6.4548 H         1 <0>         0.0556
     48 H13        -0.5209   -9.1275    5.0322 H         1 <0>         0.0415
     49 H14        -0.6325   -1.7382    1.0612 H         1 <0>         0.0851
     50 H15        -2.8361   -9.1085    5.7717 H         1 <0>         0.0639
     51 H16         0.4173    1.7778   -0.1080 H         1 <0>         0.0584
     52 H17        -3.6244   -6.3649    5.3098 H         1 <0>         0.0401
     53 H18        -3.8316   -7.3737    6.7546 H         1 <0>         0.0440
     54 H19        -2.3459   -6.4283    6.5381 H         1 <0>         0.0459
     55 H20         1.1081    0.6390   -2.4855 H         1 <0>         0.0456
     56 H21         1.6425    2.2512   -1.9725 H         1 <0>         0.0366
     57 H22         2.7156    0.8534   -1.7662 H         1 <0>         0.0474
     58 H23        -2.4032   -3.9506    2.8639 H         1 <0>         0.0800
     59 H24        -1.7473   -4.5245    4.4007 H         1 <0>         0.0681
     60 H25        -1.1204   -2.1894    5.0211 H         1 <0>         0.0740
     61 H26        -1.8263   -1.5854    3.5275 H         1 <0>         0.0631
     62 H27        -3.4379   -3.1690    5.6489 H         1 <0>         0.0970
     63 H28        -4.1962   -4.3179    4.5344 H         1 <0>         0.0725
     64 H29        -0.1638   -2.9774    2.1921 H         1 <0>         0.0839
     65 H30         0.5706   -6.7495    4.8928 H         1 <0>         0.4531
     66 H31        -5.8550   -0.3880    2.9661 H         1 <0>         0.4798
     67 H32        -7.1958   -0.6354    4.0404 H         1 <0>         0.4881
     68 H33        -5.7325   -3.3897    5.8930 H         1 <0>         0.4801
     69 H34        -7.1311   -2.3670    5.7313 H         1 <0>         0.4806
     70 H35        -3.8810   -1.8227    3.1796 H         1 <0>         0.4689
     71 H36         1.3354   -3.3564    4.7325 H         1 <0>         0.4505
     72 H37        -3.3805    0.1466    1.0133 H         1 <0>         0.4443
@<TRIPOS>BOND
     1    1    2 ar
     2    1    3 ar
     3    2    4 ar
     4    3    6 ar
     5    4    5 ar
     6    4   10 1
     7    5    6 ar
     8    5   24 1
     9    6   35 1
    10    7   15 1
    11    7   30 2
    12    7   34 1
    13    8   23 1
    14    8   25 am
    15    8   31 2
    16    9   26 1
    17    9   27 1
    18    9   28 1
    19   10   16 1
    20   11   13 1
    21   11   17 1
    22   12   15 1
    23   12   17 1
    24   13   25 1
    25   14   16 1
    26   14   24 1
    27   15   25 1
    28   16   18 1
    29   17   19 1
    30   20   21 1
    31   20   22 1
    32   21   23 1
    33   22   28 1
    34   23   29 1
    35   29   35 1
    36   32   35 2
    37   33   35 2
    38    1   36 1
    39    2   37 1
    40    3   38 1
    41   10   39 1
    42   10   40 1
    43   11   41 1
    44   11   42 1
    45   12   43 1
    46   12   44 1
    47   13   45 1
    48   13   46 1
    49   14   47 1
    50   14   48 1
    51   15   49 1
    52   16   50 1
    53   17   51 1
    54   18   52 1
    55   18   53 1
    56   18   54 1
    57   19   55 1
    58   19   56 1
    59   19   57 1
    60   20   58 1
    61   20   59 1
    62   21   60 1
    63   21   61 1
    64   22   62 1
    65   22   63 1
    66   23   64 1
    67   24   65 1
    68   26   66 1
    69   26   67 1
    70   27   68 1
    71   27   69 1
    72   28   70 1
    73   29   71 1
    74   34   72 1
@<TRIPOS>MOLECULE
1dwc_ligand_276
   72    74     0     0     0
SMALL
USER_CHARGES

mmff94s_NoEstat = 80.83
@<TRIPOS>ATOM
      1 C1          3.3055   -6.8449   -1.9341 C.ar      1 <0>        -0.1945
      2 C2          3.8095   -7.1580   -3.1947 C.ar      1 <0>        -0.0294
      3 C3          2.5030   -5.7201   -1.7675 C.ar      1 <0>        -0.0143
      4 C4          3.5095   -6.3479   -4.2992 C.ar      1 <0>        -0.1552
      5 C5          2.7217   -5.1914   -4.1335 C.ar      1 <0>         0.3076
      6 C6          2.2111   -4.9017   -2.8599 C.ar      1 <0>        -0.4908
      7 C7          1.8102   -1.5505    2.3702 C.2       1 <0>         0.5994
      8 C8          2.9466   -1.3973   -0.6457 C.2       1 <0>         0.6462
      9 C9          5.5099    2.9416   -5.0187 C.cat     1 <0>         0.6305
     10 C10         4.0704   -6.6982   -5.6567 C.3       1 <0>        -0.0319
     11 C11         4.4920   -3.4807    2.0801 C.3       1 <0>        -0.0918
     12 C12         4.1798   -1.0721    2.8769 C.3       1 <0>        -0.0841
     13 C13         4.5658   -2.7774    0.7291 C.3       1 <0>         0.0870
     14 C14         3.0733   -4.5524   -6.4856 C.3       1 <0>         0.2023
     15 C15         3.1125   -1.0286    1.7861 C.3       1 <0>         0.0778
     16 C16         3.2586   -6.0435   -6.7854 C.3       1 <0>        -0.0746
     17 C17         4.5869   -2.5050    3.2643 C.3       1 <0>        -0.0681
     18 C18         3.9400   -6.2504   -8.1353 C.3       1 <0>        -0.0944
     19 C19         5.9882   -2.5079    3.8779 C.3       1 <0>        -0.0918
     20 C20         4.0666    0.0061   -3.0917 C.3       1 <0>        -0.1192
     21 C21         4.5564   -1.3488   -2.5679 C.3       1 <0>        -0.0916
     22 C22         5.1498    0.7503   -3.8628 C.3       1 <0>         0.1883
     23 C23         3.4544   -2.1251   -1.8653 C.3       1 <0>         0.1952
     24 N1          2.4075   -4.3705   -5.2096 N.pl3     1 <0>        -0.7670
     25 N2          3.5192   -1.7560    0.5781 N.am      1 <0>        -0.4509
     26 N3          5.0373    4.1732   -5.4600 N.pl3     1 <0>        -0.8477
     27 N4          6.8343    2.5959   -5.2649 N.pl3     1 <0>        -0.8633
     28 N5          4.6819    2.0459   -4.3336 N.pl3     1 <0>        -0.7419
     29 N6          2.2741   -2.2179   -2.7432 N.pl3     1 <0>        -0.8860
     30 O1          1.1684   -2.4905    1.9254 O.2       1 <0>        -0.5199
     31 O2          2.0685   -0.5400   -0.7710 O.2       1 <0>        -0.6131
     32 O3          0.1927   -3.4494   -3.6292 O.2       1 <0>        -0.6576
     33 O4          0.7527   -3.5815   -1.1810 O.2       1 <0>        -0.6482
     34 O5          1.4498   -0.8272    3.4584 O.3       1 <0>        -0.6303
     35 S1          1.1775   -3.5081   -2.5659 S.o2      1 <0>         1.5193
     36 H1          3.5358   -7.4800   -1.0832 H         1 <0>         0.1426
     37 H2          4.4333   -8.0405   -3.3162 H         1 <0>         0.1398
     38 H3          2.0998   -5.4697   -0.7914 H         1 <0>         0.1599
     39 H4          5.1147   -6.3633   -5.6949 H         1 <0>         0.0574
     40 H5          4.0627   -7.7864   -5.7947 H         1 <0>         0.0629
     41 H6          3.5311   -4.0088    2.1410 H         1 <0>         0.0614
     42 H7          5.2694   -4.2509    2.1463 H         1 <0>         0.0593
     43 H8          5.0641   -0.5305    2.5137 H         1 <0>         0.0841
     44 H9          3.8399   -0.5392    3.7741 H         1 <0>         0.0679
     45 H10         5.5312   -2.2723    0.6079 H         1 <0>         0.0826
     46 H11         4.4795   -3.5150   -0.0747 H         1 <0>         0.0383
     47 H12         4.0431   -4.0398   -6.4660 H         1 <0>         0.0556
     48 H13         2.4729   -4.0799   -7.2710 H         1 <0>         0.0415
     49 H14         2.9188    0.0160    1.5141 H         1 <0>         0.0851
     50 H15         2.2693   -6.5190   -6.8298 H         1 <0>         0.0639
     51 H16         3.9047   -2.8651    4.0450 H         1 <0>         0.0584
     52 H17         3.2554   -6.0057   -8.9529 H         1 <0>         0.0401
     53 H18         4.8233   -5.6107   -8.2222 H         1 <0>         0.0440
     54 H19         4.2559   -7.2916   -8.2507 H         1 <0>         0.0459
     55 H20         6.0310   -3.1862    4.7353 H         1 <0>         0.0456
     56 H21         6.7293   -2.8350    3.1425 H         1 <0>         0.0366
     57 H22         6.2606   -1.5045    4.2187 H         1 <0>         0.0474
     58 H23         3.1961   -0.1462   -3.7411 H         1 <0>         0.0800
     59 H24         3.7428    0.6319   -2.2522 H         1 <0>         0.0681
     60 H25         5.4094   -1.1917   -1.8946 H         1 <0>         0.0740
     61 H26         4.9285   -1.9502   -3.4070 H         1 <0>         0.0631
     62 H27         5.4874    0.1718   -4.7286 H         1 <0>         0.0970
     63 H28         6.0148    0.9268   -3.2156 H         1 <0>         0.0725
     64 H29         3.7703   -3.1244   -1.5692 H         1 <0>         0.0839
     65 H30         1.9026   -3.5116   -5.0286 H         1 <0>         0.4531
     66 H31         4.0769    4.4674   -5.3045 H         1 <0>         0.4798
     67 H32         5.6462    4.8184   -5.9581 H         1 <0>         0.4881
     68 H33         7.2124    1.7035   -4.9563 H         1 <0>         0.4801
     69 H34         7.4600    3.2272   -5.7595 H         1 <0>         0.4806
     70 H35         3.7146    2.3280   -4.1678 H         1 <0>         0.4689
     71 H36         1.9407   -1.3323   -3.1385 H         1 <0>         0.4505
     72 H37         0.6092   -1.1478    3.8495 H         1 <0>         0.4443
@<TRIPOS>BOND
     1    1    2 ar
     2    1    3 ar
     3    2    4 ar
     4    3    6 ar
     5    4    5 ar
     6    4   10 1
     7    5    6 ar
     8    5   24 1
     9    6   35 1
    10    7   15 1
    11    7   30 2
    12    7   34 1
    13    8   23 1
    14    8   25 am
    15    8   31 2
    16    9   26 1
    17    9   27 1
    18    9   28 1
    19   10   16 1
    20   11   13 1
    21   11   17 1
    22   12   15 1
    23   12   17 1
    24   13   25 1
    25   14   16 1
    26   14   24 1
    27   15   25 1
    28   16   18 1
    29   17   19 1
    30   20   21 1
    31   20   22 1
    32   21   23 1
    33   22   28 1
    34   23   29 1
    35   29   35 1
    36   32   35 2
    37   33   35 2
    38    1   36 1
    39    2   37 1
    40    3   38 1
    41   10   39 1
    42   10   40 1
    43   11   41 1
    44   11   42 1
    45   12   43 1
    46   12   44 1
    47   13   45 1
    48   13   46 1
    49   14   47 1
    50   14   48 1
    51   15   49 1
    52   16   50 1
    53   17   51 1
    54   18   52 1
    55   18   53 1
    56   18   54 1
    57   19   55 1
    58   19   56 1
    59   19   57 1
    60   20   58 1
    61   20   59 1
    62   21   60 1
    63   21   61 1
    64   22   62 1
    65   22   63 1
    66   23   64 1
    67   24   65 1
    68   26   66 1
    69   26   67 1
    70   27   68 1
    71   27   69 1
    72   28   70 1
    73   29   71 1
    74   34   72 1
@<TRIPOS>MOLECULE
1dwc_ligand_277
   72    74     0     0     0
SMALL
USER_CHARGES

mmff94s_NoEstat = 80.84
@<TRIPOS>ATOM
      1 C1         -0.1021   -7.1683    0.7355 C.ar      1 <0>        -0.1945
      2 C2         -0.5792   -8.1239    1.6301 C.ar      1 <0>        -0.0294
      3 C3          0.6637   -6.1037    1.2012 C.ar      1 <0>        -0.0143
      4 C4         -0.2955   -8.0178    2.9994 C.ar      1 <0>        -0.1552
      5 C5          0.5031   -6.9592    3.4747 C.ar      1 <0>         0.3076
      6 C6          0.9609   -5.9987    2.5610 C.ar      1 <0>        -0.4908
      7 C7         -1.4628    0.1636    1.3526 C.2       1 <0>         0.5994
      8 C8          0.8654   -1.4427    3.2413 C.2       1 <0>         0.6462
      9 C9         -4.4983   -0.6337    6.1614 C.cat     1 <0>         0.6305
     10 C10        -0.8145   -9.0679    3.9520 C.3       1 <0>        -0.0319
     11 C11         2.1918    0.8805    0.7195 C.3       1 <0>        -0.0918
     12 C12         0.2821   -0.3679   -0.3105 C.3       1 <0>        -0.0841
     13 C13         1.6113    0.6116    2.1020 C.3       1 <0>         0.0870
     14 C14         0.4940   -7.9005    5.7515 C.3       1 <0>         0.2023
     15 C15        -0.2506   -0.7126    1.0828 C.3       1 <0>         0.0778
     16 C16        -0.8357   -8.5817    5.4103 C.3       1 <0>        -0.0746
     17 C17         1.0859    0.9390   -0.3376 C.3       1 <0>        -0.0681
     18 C18        -2.0342   -7.6681    5.6911 C.3       1 <0>        -0.0944
     19 C19         1.6740    1.1859   -1.7255 C.3       1 <0>        -0.0918
     20 C20        -1.0866   -2.1427    5.4567 C.3       1 <0>        -0.1192
     21 C21        -1.3133   -2.4479    3.9716 C.3       1 <0>        -0.0916
     22 C22        -2.3970   -1.9935    6.2196 C.3       1 <0>         0.1883
     23 C23        -0.0078   -2.6730    3.2260 C.3       1 <0>         0.1952
     24 N1          0.7943   -6.8242    4.8264 N.pl3     1 <0>        -0.7670
     25 N2          0.7744   -0.5925    2.1333 N.am      1 <0>        -0.4509
     26 N3         -5.2661    0.3913    5.6185 N.pl3     1 <0>        -0.8477
     27 N4         -5.0125   -1.3802    7.2161 N.pl3     1 <0>        -0.8633
     28 N5         -3.2224   -0.9282    5.6689 N.pl3     1 <0>        -0.7419
     29 N6          0.7961   -3.6905    3.9267 N.pl3     1 <0>        -0.8860
     30 O1         -2.1834    0.6487    0.4931 O.2       1 <0>        -0.5199
     31 O2          1.6103   -1.2468    4.2054 O.2       1 <0>        -0.6131
     32 O3          2.9489   -5.1033    3.9827 O.2       1 <0>        -0.6576
     33 O4          2.3147   -3.9087    1.8626 O.2       1 <0>        -0.6482
     34 O5         -1.6392    0.3395    2.6850 O.3       1 <0>        -0.6303
     35 S1          1.9328   -4.6215    3.0666 S.o2      1 <0>         1.5193
     36 H1         -0.3304   -7.2521   -0.3236 H         1 <0>         0.1426
     37 H2         -1.1793   -8.9508    1.2577 H         1 <0>         0.1398
     38 H3          1.0358   -5.3499    0.5144 H         1 <0>         0.1599
     39 H4         -1.8224   -9.3834    3.6556 H         1 <0>         0.0574
     40 H5         -0.1575   -9.9435    3.8733 H         1 <0>         0.0629
     41 H6          2.7495    1.8244    0.7335 H         1 <0>         0.0614
     42 H7          2.9066    0.0878    0.4640 H         1 <0>         0.0593
     43 H8          0.9336   -1.1873   -0.6438 H         1 <0>         0.0841
     44 H9         -0.5414   -0.3095   -1.0336 H         1 <0>         0.0679
     45 H10         2.4269    0.5309    2.8282 H         1 <0>         0.0826
     46 H11         0.9807    1.4504    2.4206 H         1 <0>         0.0383
     47 H12         0.4682   -7.5028    6.7722 H         1 <0>         0.0556
     48 H13         1.3063   -8.6368    5.7145 H         1 <0>         0.0415
     49 H14        -0.6325   -1.7382    1.0612 H         1 <0>         0.0851
     50 H15        -0.9553   -9.4568    6.0608 H         1 <0>         0.0639
     51 H16         0.4173    1.7778   -0.1080 H         1 <0>         0.0584
     52 H17        -2.5659   -7.4356    4.7636 H         1 <0>         0.0401
     53 H18        -2.7347   -8.1530    6.3776 H         1 <0>         0.0440
     54 H19        -1.7034   -6.7283    6.1433 H         1 <0>         0.0459
     55 H20         1.1081    0.6390   -2.4855 H         1 <0>         0.0456
     56 H21         1.6425    2.2512   -1.9725 H         1 <0>         0.0366
     57 H22         2.7156    0.8534   -1.7662 H         1 <0>         0.0474
     58 H23        -0.4913   -2.9455    5.9081 H         1 <0>         0.0800
     59 H24        -0.5143   -1.2136    5.5600 H         1 <0>         0.0681
     60 H25        -1.8840   -1.6286    3.5148 H         1 <0>         0.0740
     61 H26        -1.9315   -3.3495    3.8758 H         1 <0>         0.0631
     62 H27        -2.2165   -1.7761    7.2772 H         1 <0>         0.0970
     63 H28        -2.9728   -2.9224    6.1586 H         1 <0>         0.0725
     64 H29        -0.1638   -2.9774    2.1921 H         1 <0>         0.0839
     65 H30         1.4333   -6.0909    5.1082 H         1 <0>         0.4531
     66 H31        -4.9308    0.9641    4.8486 H         1 <0>         0.4798
     67 H32        -6.1929    0.5993    5.9831 H         1 <0>         0.4881
     68 H33        -4.4781   -2.1366    7.6365 H         1 <0>         0.4801
     69 H34        -5.9375   -1.1898    7.5941 H         1 <0>         0.4806
     70 H35        -2.8722   -0.3628    4.8940 H         1 <0>         0.4689
     71 H36         0.9382   -3.5340    4.9302 H         1 <0>         0.4505
     72 H37        -2.4169    0.9048    2.8801 H         1 <0>         0.4443
@<TRIPOS>BOND
     1    1    2 ar
     2    1    3 ar
     3    2    4 ar
     4    3    6 ar
     5    4    5 ar
     6    4   10 1
     7    5    6 ar
     8    5   24 1
     9    6   35 1
    10    7   15 1
    11    7   30 2
    12    7   34 1
    13    8   23 1
    14    8   25 am
    15    8   31 2
    16    9   26 1
    17    9   27 1
    18    9   28 1
    19   10   16 1
    20   11   13 1
    21   11   17 1
    22   12   15 1
    23   12   17 1
    24   13   25 1
    25   14   16 1
    26   14   24 1
    27   15   25 1
    28   16   18 1
    29   17   19 1
    30   20   21 1
    31   20   22 1
    32   21   23 1
    33   22   28 1
    34   23   29 1
    35   29   35 1
    36   32   35 2
    37   33   35 2
    38    1   36 1
    39    2   37 1
    40    3   38 1
    41   10   39 1
    42   10   40 1
    43   11   41 1
    44   11   42 1
    45   12   43 1
    46   12   44 1
    47   13   45 1
    48   13   46 1
    49   14   47 1
    50   14   48 1
    51   15   49 1
    52   16   50 1
    53   17   51 1
    54   18   52 1
    55   18   53 1
    56   18   54 1
    57   19   55 1
    58   19   56 1
    59   19   57 1
    60   20   58 1
    61   20   59 1
    62   21   60 1
    63   21   61 1
    64   22   62 1
    65   22   63 1
    66   23   64 1
    67   24   65 1
    68   26   66 1
    69   26   67 1
    70   27   68 1
    71   27   69 1
    72   28   70 1
    73   29   71 1
    74   34   72 1
@<TRIPOS>MOLECULE
1dwc_ligand_278
   72    74     0     0     0
SMALL
USER_CHARGES

mmff94s_NoEstat = 80.91
@<TRIPOS>ATOM
      1 C1          2.7263   -1.9806   -7.3580 C.ar      1 <0>        -0.1945
      2 C2          4.0846   -2.2053   -7.5721 C.ar      1 <0>        -0.0294
      3 C3          2.1292   -2.4129   -6.1776 C.ar      1 <0>        -0.0143
      4 C4          4.8559   -2.8617   -6.6023 C.ar      1 <0>        -0.1552
      5 C5          4.2528   -3.3281   -5.4172 C.ar      1 <0>         0.3076
      6 C6          2.8878   -3.0788   -5.2136 C.ar      1 <0>        -0.4908
      7 C7          0.5484   -0.8946    1.4535 C.2       1 <0>         0.5994
      8 C8          2.9466   -1.3973   -0.6457 C.2       1 <0>         0.6462
      9 C9          7.0979    2.0607   -3.3281 C.cat     1 <0>         0.6305
     10 C10         6.3250   -3.1031   -6.8543 C.3       1 <0>        -0.0319
     11 C11         1.0071   -4.1523    1.0299 C.3       1 <0>        -0.0918
     12 C12         1.8830   -2.5004    2.7729 C.3       1 <0>        -0.0841
     13 C13         2.2320   -3.6460    0.2757 C.3       1 <0>         0.0870
     14 C14         6.3518   -4.4057   -4.7121 C.3       1 <0>         0.2023
     15 C15         1.9200   -1.5343    1.5913 C.3       1 <0>         0.0778
     16 C16         7.0866   -3.3480   -5.5422 C.3       1 <0>        -0.0746
     17 C17         1.0079   -3.7392    2.5107 C.3       1 <0>        -0.0681
     18 C18         8.5259   -3.7726   -5.8205 C.3       1 <0>        -0.0944
     19 C19         1.4463   -4.8953    3.4115 C.3       1 <0>        -0.0918
     20 C20         5.7415   -1.0578   -1.6401 C.3       1 <0>        -0.1192
     21 C21         4.5564   -1.3488   -2.5679 C.3       1 <0>        -0.0916
     22 C22         6.8115   -0.2136   -2.3213 C.3       1 <0>         0.1883
     23 C23         3.4544   -2.1251   -1.8653 C.3       1 <0>         0.1952
     24 N1          4.9920   -3.9808   -4.4384 N.pl3     1 <0>        -0.7670
     25 N2          2.3654   -2.1840    0.3531 N.am      1 <0>        -0.4509
     26 N3          6.5776    3.2920   -3.7129 N.pl3     1 <0>        -0.8477
     27 N4          8.4467    1.7979   -3.5420 N.pl3     1 <0>        -0.8633
     28 N5          6.2936    1.0837   -2.7315 N.pl3     1 <0>        -0.7419
     29 N6          2.2741   -2.2179   -2.7432 N.pl3     1 <0>        -0.8860
     30 O1         -0.0257   -0.2688    2.3322 O.2       1 <0>        -0.5199
     31 O2          3.0580   -0.1705   -0.5795 O.2       1 <0>        -0.6131
     32 O3          0.6499   -3.7277   -4.0534 O.2       1 <0>        -0.6576
     33 O4          2.8074   -4.6931   -3.1946 O.2       1 <0>        -0.6482
     34 O5          0.0400   -1.1141    0.2163 O.3       1 <0>        -0.6303
     35 S1          2.0591   -3.5786   -3.7438 S.o2      1 <0>         1.5193
     36 H1          2.1351   -1.4656   -8.1102 H         1 <0>         0.1426
     37 H2          4.5435   -1.8614   -8.4961 H         1 <0>         0.1398
     38 H3          1.0733   -2.2381   -5.9973 H         1 <0>         0.1599
     39 H4          6.4225   -3.9709   -7.5189 H         1 <0>         0.0574
     40 H5          6.7634   -2.2381   -7.3669 H         1 <0>         0.0629
     41 H6          0.1116   -3.7326    0.5525 H         1 <0>         0.0614
     42 H7          0.9264   -5.2409    0.9288 H         1 <0>         0.0593
     43 H8          2.9117   -2.8226    2.9853 H         1 <0>         0.0841
     44 H9          1.5267   -1.9929    3.6785 H         1 <0>         0.0679
     45 H10         3.1493   -4.0774    0.6933 H         1 <0>         0.0826
     46 H11         2.1726   -3.9558   -0.7722 H         1 <0>         0.0383
     47 H12         6.3330   -5.3664   -5.2416 H         1 <0>         0.0556
     48 H13         6.8717   -4.5696   -3.7617 H         1 <0>         0.0415
     49 H14         2.6095   -0.7128    1.8202 H         1 <0>         0.0851
     50 H15         7.1156   -2.4102   -4.9709 H         1 <0>         0.0639
     51 H16        -0.0273   -3.5034    2.7887 H         1 <0>         0.0584
     52 H17         9.1283   -3.7094   -4.9094 H         1 <0>         0.0401
     53 H18         8.5590   -4.8039   -6.1846 H         1 <0>         0.0440
     54 H19         8.9780   -3.1252   -6.5778 H         1 <0>         0.0459
     55 H20         0.5753   -5.4296    3.8024 H         1 <0>         0.0456
     56 H21         2.0638   -5.6051    2.8530 H         1 <0>         0.0366
     57 H22         2.0303   -4.5225    4.2583 H         1 <0>         0.0474
     58 H23         5.3842   -0.5386   -0.7426 H         1 <0>         0.0800
     59 H24         6.1956   -2.0004   -1.3135 H         1 <0>         0.0681
     60 H25         4.9119   -1.8947   -3.4517 H         1 <0>         0.0740
     61 H26         4.1396   -0.4017   -2.9334 H         1 <0>         0.0631
     62 H27         7.2104   -0.7195   -3.2063 H         1 <0>         0.0970
     63 H28         7.6418   -0.0344   -1.6309 H         1 <0>         0.0725
     64 H29         3.7703   -3.1244   -1.5692 H         1 <0>         0.0839
     65 H30         4.5012   -4.3637   -3.6397 H         1 <0>         0.4531
     66 H31         5.5979    3.5274   -3.5781 H         1 <0>         0.4798
     67 H32         7.1694    3.9967   -4.1467 H         1 <0>         0.4881
     68 H33         8.8596    0.9082   -3.2729 H         1 <0>         0.4801
     69 H34         9.0560    2.4894   -3.9724 H         1 <0>         0.4806
     70 H35         5.3074    1.3059   -2.5875 H         1 <0>         0.4689
     71 H36         1.4502   -1.6870   -2.4414 H         1 <0>         0.4505
     72 H37        -0.8473   -0.7100    0.1079 H         1 <0>         0.4443
@<TRIPOS>BOND
     1    1    2 ar
     2    1    3 ar
     3    2    4 ar
     4    3    6 ar
     5    4    5 ar
     6    4   10 1
     7    5    6 ar
     8    5   24 1
     9    6   35 1
    10    7   15 1
    11    7   30 2
    12    7   34 1
    13    8   23 1
    14    8   25 am
    15    8   31 2
    16    9   26 1
    17    9   27 1
    18    9   28 1
    19   10   16 1
    20   11   13 1
    21   11   17 1
    22   12   15 1
    23   12   17 1
    24   13   25 1
    25   14   16 1
    26   14   24 1
    27   15   25 1
    28   16   18 1
    29   17   19 1
    30   20   21 1
    31   20   22 1
    32   21   23 1
    33   22   28 1
    34   23   29 1
    35   29   35 1
    36   32   35 2
    37   33   35 2
    38    1   36 1
    39    2   37 1
    40    3   38 1
    41   10   39 1
    42   10   40 1
    43   11   41 1
    44   11   42 1
    45   12   43 1
    46   12   44 1
    47   13   45 1
    48   13   46 1
    49   14   47 1
    50   14   48 1
    51   15   49 1
    52   16   50 1
    53   17   51 1
    54   18   52 1
    55   18   53 1
    56   18   54 1
    57   19   55 1
    58   19   56 1
    59   19   57 1
    60   20   58 1
    61   20   59 1
    62   21   60 1
    63   21   61 1
    64   22   62 1
    65   22   63 1
    66   23   64 1
    67   24   65 1
    68   26   66 1
    69   26   67 1
    70   27   68 1
    71   27   69 1
    72   28   70 1
    73   29   71 1
    74   34   72 1
@<TRIPOS>MOLECULE
1dwc_ligand_279
   72    74     0     0     0
SMALL
USER_CHARGES

mmff94s_NoEstat = 80.92
@<TRIPOS>ATOM
      1 C1          2.9804   -6.8364   -3.8826 C.ar      1 <0>        -0.1945
      2 C2          2.9418   -6.7056   -5.2692 C.ar      1 <0>        -0.0294
      3 C3          2.4346   -5.8419   -3.0764 C.ar      1 <0>        -0.0143
      4 C4          2.3519   -5.5783   -5.8586 C.ar      1 <0>        -0.1552
      5 C5          1.8230   -4.5534   -5.0490 C.ar      1 <0>         0.3076
      6 C6          1.8576   -4.7107   -3.6559 C.ar      1 <0>        -0.4908
      7 C7          2.6281   -1.3042    2.5638 C.2       1 <0>         0.5994
      8 C8          2.9466   -1.3973   -0.6457 C.2       1 <0>         0.6462
      9 C9          4.9528    0.1036   -6.2734 C.cat     1 <0>         0.6305
     10 C10         2.3255   -5.4497   -7.3628 C.3       1 <0>        -0.0319
     11 C11         5.7543   -2.0741    1.7663 C.3       1 <0>        -0.0918
     12 C12         4.6161    0.1433    2.3333 C.3       1 <0>        -0.0841
     13 C13         5.2430   -1.7129    0.3758 C.3       1 <0>         0.0870
     14 C14         1.3521   -3.1637   -7.0268 C.3       1 <0>         0.2023
     15 C15         3.4337   -0.4666    1.5844 C.3       1 <0>         0.0778
     16 C16         1.2367   -4.4677   -7.8231 C.3       1 <0>        -0.0746
     17 C17         5.6648   -0.9011    2.7560 C.3       1 <0>        -0.0681
     18 C18         1.3410   -4.2047   -9.3229 C.3       1 <0>        -0.0944
     19 C19         7.0265   -0.2323    2.9523 C.3       1 <0>        -0.0918
     20 C20         4.0666    0.0061   -3.0917 C.3       1 <0>        -0.1192
     21 C21         4.5564   -1.3488   -2.5679 C.3       1 <0>        -0.0916
     22 C22         5.1498    0.7503   -3.8628 C.3       1 <0>         0.1883
     23 C23         3.4544   -2.1251   -1.8653 C.3       1 <0>         0.1952
     24 N1          1.2318   -3.4255   -5.6050 N.pl3     1 <0>        -0.7670
     25 N2          3.8547   -1.2301    0.4039 N.am      1 <0>        -0.4509
     26 N3          5.3941   -0.6210   -7.3756 N.pl3     1 <0>        -0.8477
     27 N4          3.8552    0.9464   -6.4114 N.pl3     1 <0>        -0.8633
     28 N5          5.5893    0.0019   -5.0317 N.pl3     1 <0>        -0.7419
     29 N6          2.2741   -2.2179   -2.7432 N.pl3     1 <0>        -0.8860
     30 O1          2.1401   -0.8907    3.6051 O.2       1 <0>        -0.5199
     31 O2          1.7818   -0.9917   -0.6208 O.2       1 <0>        -0.6131
     32 O3         -0.1165   -3.1121   -3.0880 O.2       1 <0>        -0.6576
     33 O4          1.2896   -4.0436   -1.2226 O.2       1 <0>        -0.6482
     34 O5          2.5235   -2.5830    2.1269 O.3       1 <0>        -0.6303
     35 S1          1.1775   -3.5081   -2.5659 S.o2      1 <0>         1.5193
     36 H1          3.4328   -7.7153   -3.4316 H         1 <0>         0.1426
     37 H2          3.3680   -7.4891   -5.8914 H         1 <0>         0.1398
     38 H3          2.4534   -5.9358   -1.9953 H         1 <0>         0.1599
     39 H4          3.3132   -5.1073   -7.6968 H         1 <0>         0.0574
     40 H5          2.1395   -6.4300   -7.8186 H         1 <0>         0.0629
     41 H6          5.1450   -2.9020    2.1525 H         1 <0>         0.0614
     42 H7          6.7810   -2.4531    1.7029 H         1 <0>         0.0593
     43 H8          5.0903    0.8874    1.6785 H         1 <0>         0.0841
     44 H9          4.2733    0.6894    3.2215 H         1 <0>         0.0679
     45 H10         5.8537   -0.9171   -0.0665 H         1 <0>         0.0826
     46 H11         5.3167   -2.5850   -0.2811 H         1 <0>         0.0383
     47 H12         2.3133   -2.6740   -7.2264 H         1 <0>         0.0556
     48 H13         0.5637   -2.4650   -7.3281 H         1 <0>         0.0415
     49 H14         2.7622    0.3365    1.2577 H         1 <0>         0.0851
     50 H15         0.2527   -4.9144   -7.6261 H         1 <0>         0.0639
     51 H16         5.3768   -1.3130    3.7317 H         1 <0>         0.0584
     52 H17         0.4364   -3.7110   -9.6904 H         1 <0>         0.0401
     53 H18         2.1981   -3.5608   -9.5417 H         1 <0>         0.0440
     54 H19         1.4672   -5.1439   -9.8699 H         1 <0>         0.0459
     55 H20         7.5288   -0.6354    3.8367 H         1 <0>         0.0456
     56 H21         7.6683   -0.4045    2.0831 H         1 <0>         0.0366
     57 H22         6.9087    0.8473    3.0852 H         1 <0>         0.0474
     58 H23         3.1961   -0.1462   -3.7411 H         1 <0>         0.0800
     59 H24         3.7428    0.6319   -2.2522 H         1 <0>         0.0681
     60 H25         5.4094   -1.1917   -1.8946 H         1 <0>         0.0740
     61 H26         4.9285   -1.9502   -3.4070 H         1 <0>         0.0631
     62 H27         6.0226    0.9442   -3.2312 H         1 <0>         0.0970
     63 H28         4.7647    1.7133   -4.2128 H         1 <0>         0.0725
     64 H29         3.7703   -3.1244   -1.5692 H         1 <0>         0.0839
     65 H30         0.9344   -2.6826   -4.9846 H         1 <0>         0.4531
     66 H31         6.1929   -1.2474   -7.3223 H         1 <0>         0.4798
     67 H32         4.9258   -0.5407   -8.2753 H         1 <0>         0.4881
     68 H33         3.5064    1.4907   -5.6261 H         1 <0>         0.4801
     69 H34         3.3717    1.0398   -7.3014 H         1 <0>         0.4806
     70 H35         6.3922   -0.6250   -4.9615 H         1 <0>         0.4689
     71 H36         1.9407   -1.3323   -3.1385 H         1 <0>         0.4505
     72 H37         2.0077   -3.1411    2.7472 H         1 <0>         0.4443
@<TRIPOS>BOND
     1    1    2 ar
     2    1    3 ar
     3    2    4 ar
     4    3    6 ar
     5    4    5 ar
     6    4   10 1
     7    5    6 ar
     8    5   24 1
     9    6   35 1
    10    7   15 1
    11    7   30 2
    12    7   34 1
    13    8   23 1
    14    8   25 am
    15    8   31 2
    16    9   26 1
    17    9   27 1
    18    9   28 1
    19   10   16 1
    20   11   13 1
    21   11   17 1
    22   12   15 1
    23   12   17 1
    24   13   25 1
    25   14   16 1
    26   14   24 1
    27   15   25 1
    28   16   18 1
    29   17   19 1
    30   20   21 1
    31   20   22 1
    32   21   23 1
    33   22   28 1
    34   23   29 1
    35   29   35 1
    36   32   35 2
    37   33   35 2
    38    1   36 1
    39    2   37 1
    40    3   38 1
    41   10   39 1
    42   10   40 1
    43   11   41 1
    44   11   42 1
    45   12   43 1
    46   12   44 1
    47   13   45 1
    48   13   46 1
    49   14   47 1
    50   14   48 1
    51   15   49 1
    52   16   50 1
    53   17   51 1
    54   18   52 1
    55   18   53 1
    56   18   54 1
    57   19   55 1
    58   19   56 1
    59   19   57 1
    60   20   58 1
    61   20   59 1
    62   21   60 1
    63   21   61 1
    64   22   62 1
    65   22   63 1
    66   23   64 1
    67   24   65 1
    68   26   66 1
    69   26   67 1
    70   27   68 1
    71   27   69 1
    72   28   70 1
    73   29   71 1
    74   34   72 1
@<TRIPOS>MOLECULE
1dwc_ligand_280
   72    74     0     0     0
SMALL
USER_CHARGES

mmff94s_NoEstat = 80.92
@<TRIPOS>ATOM
      1 C1          3.3055   -6.8449   -1.9341 C.ar      1 <0>        -0.1945
      2 C2          3.8095   -7.1580   -3.1947 C.ar      1 <0>        -0.0294
      3 C3          2.5030   -5.7201   -1.7675 C.ar      1 <0>        -0.0143
      4 C4          3.5095   -6.3479   -4.2992 C.ar      1 <0>        -0.1552
      5 C5          2.7217   -5.1914   -4.1335 C.ar      1 <0>         0.3076
      6 C6          2.2111   -4.9017   -2.8599 C.ar      1 <0>        -0.4908
      7 C7          1.7641   -2.7212    2.0487 C.2       1 <0>         0.5994
      8 C8          2.9466   -1.3973   -0.6457 C.2       1 <0>         0.6462
      9 C9          6.5015    0.6070   -5.9587 C.cat     1 <0>         0.6305
     10 C10         4.0704   -6.6982   -5.6567 C.3       1 <0>        -0.0319
     11 C11         5.0423   -3.2056    1.9033 C.3       1 <0>        -0.0918
     12 C12         3.6127   -1.4179    3.0409 C.3       1 <0>        -0.0841
     13 C13         4.8985   -2.2417    0.7304 C.3       1 <0>         0.0870
     14 C14         3.0733   -4.5524   -6.4856 C.3       1 <0>         0.2023
     15 C15         2.7323   -1.5757    1.8036 C.3       1 <0>         0.0778
     16 C16         3.2586   -6.0435   -6.7854 C.3       1 <0>        -0.0746
     17 C17         4.5907   -2.5900    3.2377 C.3       1 <0>        -0.0681
     18 C18         3.9400   -6.2504   -8.1353 C.3       1 <0>        -0.0944
     19 C19         5.7878   -2.1430    4.0786 C.3       1 <0>        -0.0918
     20 C20         5.1203   -2.1076   -3.7746 C.3       1 <0>        -0.1192
     21 C21         4.5564   -1.3488   -2.5679 C.3       1 <0>        -0.0916
     22 C22         6.2766   -1.3646   -4.4322 C.3       1 <0>         0.1883
     23 C23         3.4544   -2.1251   -1.8653 C.3       1 <0>         0.1952
     24 N1          2.4075   -4.3705   -5.2096 N.pl3     1 <0>        -0.7670
     25 N2          3.5192   -1.7560    0.5781 N.am      1 <0>        -0.4509
     26 N3          6.0983    1.8712   -6.3760 N.pl3     1 <0>        -0.8477
     27 N4          7.5487   -0.0238   -6.6217 N.pl3     1 <0>        -0.8633
     28 N5          5.8764   -0.0411   -4.8880 N.pl3     1 <0>        -0.7419
     29 N6          2.2741   -2.2179   -2.7432 N.pl3     1 <0>        -0.8860
     30 O1          0.9797   -2.7895    2.9833 O.2       1 <0>        -0.5199
     31 O2          2.0685   -0.5400   -0.7710 O.2       1 <0>        -0.6131
     32 O3          0.1927   -3.4494   -3.6292 O.2       1 <0>        -0.6576
     33 O4          0.7527   -3.5815   -1.1810 O.2       1 <0>        -0.6482
     34 O5          1.8885   -3.6674    1.0861 O.3       1 <0>        -0.6303
     35 S1          1.1775   -3.5081   -2.5659 S.o2      1 <0>         1.5193
     36 H1          3.5358   -7.4800   -1.0832 H         1 <0>         0.1426
     37 H2          4.4333   -8.0405   -3.3162 H         1 <0>         0.1398
     38 H3          2.0998   -5.4697   -0.7914 H         1 <0>         0.1599
     39 H4          5.1147   -6.3633   -5.6949 H         1 <0>         0.0574
     40 H5          4.0627   -7.7864   -5.7947 H         1 <0>         0.0629
     41 H6          4.4221   -4.0890    1.7005 H         1 <0>         0.0614
     42 H7          6.0756   -3.5656    1.9699 H         1 <0>         0.0593
     43 H8          4.1829   -0.4841    2.9397 H         1 <0>         0.0841
     44 H9          2.9979   -1.3064    3.9432 H         1 <0>         0.0679
     45 H10         5.5377   -1.3623    0.8715 H         1 <0>         0.0826
     46 H11         5.2196   -2.7347   -0.1923 H         1 <0>         0.0383
     47 H12         4.0431   -4.0398   -6.4660 H         1 <0>         0.0556
     48 H13         2.4729   -4.0799   -7.2710 H         1 <0>         0.0415
     49 H14         2.1101   -0.6800    1.6885 H         1 <0>         0.0851
     50 H15         2.2693   -6.5190   -6.8298 H         1 <0>         0.0639
     51 H16         4.0846   -3.3774    3.8106 H         1 <0>         0.0584
     52 H17         3.2554   -6.0057   -8.9529 H         1 <0>         0.0401
     53 H18         4.8233   -5.6107   -8.2222 H         1 <0>         0.0440
     54 H19         4.2559   -7.2916   -8.2507 H         1 <0>         0.0459
     55 H20         6.0635   -2.9197    4.7982 H         1 <0>         0.0456
     56 H21         6.6531   -1.9424    3.4397 H         1 <0>         0.0366
     57 H22         5.5491   -1.2299    4.6321 H         1 <0>         0.0474
     58 H23         5.4592   -3.1007   -3.4560 H         1 <0>         0.0800
     59 H24         4.3307   -2.2553   -4.5204 H         1 <0>         0.0681
     60 H25         4.1906   -0.3664   -2.8945 H         1 <0>         0.0740
     61 H26         5.3633   -1.1575   -1.8491 H         1 <0>         0.0631
     62 H27         6.6666   -1.9201   -5.2910 H         1 <0>         0.0970
     63 H28         7.0930   -1.2338   -3.7147 H         1 <0>         0.0725
     64 H29         3.7703   -3.1244   -1.5692 H         1 <0>         0.0839
     65 H30         1.9026   -3.5116   -5.0286 H         1 <0>         0.4531
     66 H31         5.3368    2.3693   -5.9230 H         1 <0>         0.4798
     67 H32         6.5580    2.3352   -7.1561 H         1 <0>         0.4881
     68 H33         7.8687   -0.9481   -6.3427 H         1 <0>         0.4801
     69 H34         8.0228    0.4233   -7.4027 H         1 <0>         0.4806
     70 H35         5.1108    0.4473   -4.4211 H         1 <0>         0.4689
     71 H36         1.9407   -1.3323   -3.1385 H         1 <0>         0.4505
     72 H37         1.2722   -4.4174    1.2277 H         1 <0>         0.4443
@<TRIPOS>BOND
     1    1    2 ar
     2    1    3 ar
     3    2    4 ar
     4    3    6 ar
     5    4    5 ar
     6    4   10 1
     7    5    6 ar
     8    5   24 1
     9    6   35 1
    10    7   15 1
    11    7   30 2
    12    7   34 1
    13    8   23 1
    14    8   25 am
    15    8   31 2
    16    9   26 1
    17    9   27 1
    18    9   28 1
    19   10   16 1
    20   11   13 1
    21   11   17 1
    22   12   15 1
    23   12   17 1
    24   13   25 1
    25   14   16 1
    26   14   24 1
    27   15   25 1
    28   16   18 1
    29   17   19 1
    30   20   21 1
    31   20   22 1
    32   21   23 1
    33   22   28 1
    34   23   29 1
    35   29   35 1
    36   32   35 2
    37   33   35 2
    38    1   36 1
    39    2   37 1
    40    3   38 1
    41   10   39 1
    42   10   40 1
    43   11   41 1
    44   11   42 1
    45   12   43 1
    46   12   44 1
    47   13   45 1
    48   13   46 1
    49   14   47 1
    50   14   48 1
    51   15   49 1
    52   16   50 1
    53   17   51 1
    54   18   52 1
    55   18   53 1
    56   18   54 1
    57   19   55 1
    58   19   56 1
    59   19   57 1
    60   20   58 1
    61   20   59 1
    62   21   60 1
    63   21   61 1
    64   22   62 1
    65   22   63 1
    66   23   64 1
    67   24   65 1
    68   26   66 1
    69   26   67 1
    70   27   68 1
    71   27   69 1
    72   28   70 1
    73   29   71 1
    74   34   72 1
@<TRIPOS>MOLECULE
1dwc_ligand_281
   72    74     0     0     0
SMALL
USER_CHARGES

mmff94s_NoEstat = 80.95
@<TRIPOS>ATOM
      1 C1          0.6093   -6.2514   -1.1331 C.ar      1 <0>        -0.1945
      2 C2          1.7391   -6.9534   -0.7183 C.ar      1 <0>        -0.0294
      3 C3          0.7343   -5.2205   -2.0596 C.ar      1 <0>        -0.0143
      4 C4          3.0029   -6.6298   -1.2325 C.ar      1 <0>        -0.1552
      5 C5          3.1419   -5.5684   -2.1489 C.ar      1 <0>         0.3076
      6 C6          1.9909   -4.8841   -2.5656 C.ar      1 <0>        -0.4908
      7 C7          2.4038   -0.4910    2.4030 C.2       1 <0>         0.5994
      8 C8          2.9466   -1.3973   -0.6457 C.2       1 <0>         0.6462
      9 C9          9.0792    0.7389   -1.8541 C.cat     1 <0>         0.6305
     10 C10         4.2174   -7.3963   -0.7662 C.3       1 <0>        -0.0319
     11 C11         3.9178   -3.4419    2.3602 C.3       1 <0>        -0.0918
     12 C12         4.8012   -1.0545    2.5913 C.3       1 <0>        -0.0841
     13 C13         4.0430   -3.0960    0.8803 C.3       1 <0>         0.0870
     14 C14         5.5937   -5.7970   -2.1205 C.3       1 <0>         0.2023
     15 C15         3.6790   -0.7248    1.6100 C.3       1 <0>         0.0778
     16 C16         5.3776   -7.2719   -1.7663 C.3       1 <0>        -0.0746
     17 C17         4.6242   -2.4243    3.2705 C.3       1 <0>        -0.0681
     18 C18         6.6521   -7.8917   -1.1998 C.3       1 <0>        -0.0944
     19 C19         5.9763   -2.9527    3.7531 C.3       1 <0>        -0.0918
     20 C20         5.7415   -1.0578   -1.6401 C.3       1 <0>        -0.1192
     21 C21         4.5564   -1.3488   -2.5679 C.3       1 <0>        -0.0916
     22 C22         6.8115   -0.2136   -2.3213 C.3       1 <0>         0.1883
     23 C23         3.4544   -2.1251   -1.8653 C.3       1 <0>         0.1952
     24 N1          4.3811   -5.2258   -2.6756 N.pl3     1 <0>        -0.7670
     25 N2          3.5192   -1.7560    0.5781 N.am      1 <0>        -0.4509
     26 N3         10.1464    0.9650   -0.9911 N.pl3     1 <0>        -0.8477
     27 N4          9.1456    1.2237   -3.1558 N.pl3     1 <0>        -0.8633
     28 N5          7.9432    0.0352   -1.4399 N.pl3     1 <0>        -0.7419
     29 N6          2.2741   -2.2179   -2.7432 N.pl3     1 <0>        -0.8860
     30 O1          2.2729    0.3351    3.2940 O.2       1 <0>        -0.5199
     31 O2          2.0685   -0.5400   -0.7710 O.2       1 <0>        -0.6131
     32 O3          3.2466   -3.7694   -4.5546 O.2       1 <0>        -0.6576
     33 O4          0.7526   -3.5048   -4.3692 O.2       1 <0>        -0.6482
     34 O5          1.4223   -1.3294    1.9894 O.3       1 <0>        -0.6303
     35 S1          2.0591   -3.5786   -3.7438 S.o2      1 <0>         1.5193
     36 H1         -0.3683   -6.5110   -0.7364 H         1 <0>         0.1426
     37 H2          1.6316   -7.7594    0.0037 H         1 <0>         0.1398
     38 H3         -0.1396   -4.6708   -2.3946 H         1 <0>         0.1599
     39 H4          4.5163   -7.0048    0.2145 H         1 <0>         0.0574
     40 H5          3.9649   -8.4563   -0.6405 H         1 <0>         0.0629
     41 H6          2.8510   -3.4591    2.6203 H         1 <0>         0.0614
     42 H7          4.2939   -4.4553    2.5428 H         1 <0>         0.0593
     43 H8          5.7524   -1.0436    2.0413 H         1 <0>         0.0841
     44 H9          4.8832   -0.2779    3.3625 H         1 <0>         0.0679
     45 H10         5.0934   -3.1114    0.5668 H         1 <0>         0.0826
     46 H11         3.5122   -3.8428    0.2819 H         1 <0>         0.0383
     47 H12         5.8905   -5.2266   -1.2316 H         1 <0>         0.0556
     48 H13         6.4019   -5.6981   -2.8538 H         1 <0>         0.0415
     49 H14         3.9015    0.2290    1.1168 H         1 <0>         0.0851
     50 H15         5.1141   -7.8187   -2.6818 H         1 <0>         0.0639
     51 H16         4.0032   -2.2947    4.1661 H         1 <0>         0.0584
     52 H17         7.3989   -8.0232   -1.9884 H         1 <0>         0.0401
     53 H18         7.0798   -7.2498   -0.4238 H         1 <0>         0.0440
     54 H19         6.4404   -8.8706   -0.7592 H         1 <0>         0.0459
     55 H20         5.8782   -3.4157    4.7396 H         1 <0>         0.0456
     56 H21         6.3665   -3.7022    3.0580 H         1 <0>         0.0366
     57 H22         6.7034   -2.1384    3.8257 H         1 <0>         0.0474
     58 H23         5.3842   -0.5386   -0.7426 H         1 <0>         0.0800
     59 H24         6.1956   -2.0004   -1.3135 H         1 <0>         0.0681
     60 H25         4.9119   -1.8947   -3.4517 H         1 <0>         0.0740
     61 H26         4.1396   -0.4017   -2.9334 H         1 <0>         0.0631
     62 H27         6.4083    0.7518   -2.6432 H         1 <0>         0.0970
     63 H28         7.1906   -0.7341   -3.2066 H         1 <0>         0.0725
     64 H29         3.7703   -3.1244   -1.5692 H         1 <0>         0.0839
     65 H30         4.4419   -4.4093   -3.2714 H         1 <0>         0.4531
     66 H31        10.1413    0.6313   -0.0309 H         1 <0>         0.4798
     67 H32        10.9686    1.4783   -1.3002 H         1 <0>         0.4881
     68 H33         8.3832    1.0763   -3.8128 H         1 <0>         0.4801
     69 H34         9.9591    1.7377   -3.4855 H         1 <0>         0.4806
     70 H35         7.9238   -0.3084   -0.4785 H         1 <0>         0.4689
     71 H36         1.4502   -1.6870   -2.4414 H         1 <0>         0.4505
     72 H37         0.5902   -1.1952    2.4913 H         1 <0>         0.4443
@<TRIPOS>BOND
     1    1    2 ar
     2    1    3 ar
     3    2    4 ar
     4    3    6 ar
     5    4    5 ar
     6    4   10 1
     7    5    6 ar
     8    5   24 1
     9    6   35 1
    10    7   15 1
    11    7   30 2
    12    7   34 1
    13    8   23 1
    14    8   25 am
    15    8   31 2
    16    9   26 1
    17    9   27 1
    18    9   28 1
    19   10   16 1
    20   11   13 1
    21   11   17 1
    22   12   15 1
    23   12   17 1
    24   13   25 1
    25   14   16 1
    26   14   24 1
    27   15   25 1
    28   16   18 1
    29   17   19 1
    30   20   21 1
    31   20   22 1
    32   21   23 1
    33   22   28 1
    34   23   29 1
    35   29   35 1
    36   32   35 2
    37   33   35 2
    38    1   36 1
    39    2   37 1
    40    3   38 1
    41   10   39 1
    42   10   40 1
    43   11   41 1
    44   11   42 1
    45   12   43 1
    46   12   44 1
    47   13   45 1
    48   13   46 1
    49   14   47 1
    50   14   48 1
    51   15   49 1
    52   16   50 1
    53   17   51 1
    54   18   52 1
    55   18   53 1
    56   18   54 1
    57   19   55 1
    58   19   56 1
    59   19   57 1
    60   20   58 1
    61   20   59 1
    62   21   60 1
    63   21   61 1
    64   22   62 1
    65   22   63 1
    66   23   64 1
    67   24   65 1
    68   26   66 1
    69   26   67 1
    70   27   68 1
    71   27   69 1
    72   28   70 1
    73   29   71 1
    74   34   72 1
@<TRIPOS>MOLECULE
1dwc_ligand_282
   72    74     0     0     0
SMALL
USER_CHARGES

mmff94s_NoEstat = 81.00
@<TRIPOS>ATOM
      1 C1          3.0864   -6.8132   -1.6121 C.ar      1 <0>        -0.1945
      2 C2          2.0235   -6.9752   -0.7260 C.ar      1 <0>        -0.0294
      3 C3          3.0725   -5.7656   -2.5283 C.ar      1 <0>        -0.0143
      4 C4          0.9399   -6.0855   -0.7488 C.ar      1 <0>        -0.1552
      5 C5          0.9045   -5.0397   -1.6925 C.ar      1 <0>         0.3076
      6 C6          1.9909   -4.8841   -2.5656 C.ar      1 <0>        -0.4908
      7 C7          1.8102   -1.5505    2.3702 C.2       1 <0>         0.5994
      8 C8          2.9466   -1.3973   -0.6457 C.2       1 <0>         0.6462
      9 C9          6.8261    1.8002   -3.8087 C.cat     1 <0>         0.6305
     10 C10        -0.2069   -6.2806    0.2139 C.3       1 <0>        -0.0319
     11 C11         4.4920   -3.4807    2.0801 C.3       1 <0>        -0.0918
     12 C12         4.1798   -1.0721    2.8769 C.3       1 <0>        -0.0841
     13 C13         4.5658   -2.7774    0.7291 C.3       1 <0>         0.0870
     14 C14        -1.3613   -4.3977   -0.9727 C.3       1 <0>         0.2023
     15 C15         3.1125   -1.0286    1.7861 C.3       1 <0>         0.0778
     16 C16        -1.0112   -4.9842    0.3988 C.3       1 <0>        -0.0746
     17 C17         4.5869   -2.5050    3.2643 C.3       1 <0>        -0.0681
     18 C18        -2.2700   -5.2387    1.2234 C.3       1 <0>        -0.0944
     19 C19         5.9882   -2.5079    3.8779 C.3       1 <0>        -0.0918
     20 C20         5.7415   -1.0578   -1.6401 C.3       1 <0>        -0.1192
     21 C21         4.5564   -1.3488   -2.5679 C.3       1 <0>        -0.0916
     22 C22         6.8115   -0.2136   -2.3213 C.3       1 <0>         0.1883
     23 C23         3.4544   -2.1251   -1.8653 C.3       1 <0>         0.1952
     24 N1         -0.1556   -4.1426   -1.7381 N.pl3     1 <0>        -0.7670
     25 N2          3.5192   -1.7560    0.5781 N.am      1 <0>        -0.4509
     26 N3          6.3112    3.0374   -4.1817 N.pl3     1 <0>        -0.8477
     27 N4          7.8930    1.2666   -4.5235 N.pl3     1 <0>        -0.8633
     28 N5          6.2936    1.0837   -2.7315 N.pl3     1 <0>        -0.7419
     29 N6          2.2741   -2.2179   -2.7432 N.pl3     1 <0>        -0.8860
     30 O1          1.4308   -2.7108    2.3137 O.2       1 <0>        -0.5199
     31 O2          2.0685   -0.5400   -0.7710 O.2       1 <0>        -0.6131
     32 O3          3.2466   -3.7694   -4.5546 O.2       1 <0>        -0.6576
     33 O4          0.7526   -3.5048   -4.3692 O.2       1 <0>        -0.6482
     34 O5          1.1172   -0.5491    2.9655 O.3       1 <0>        -0.6303
     35 S1          2.0591   -3.5786   -3.7438 S.o2      1 <0>         1.5193
     36 H1          3.9266   -7.5016   -1.5854 H         1 <0>         0.1426
     37 H2          2.0443   -7.7948   -0.0116 H         1 <0>         0.1398
     38 H3          3.8977   -5.6260   -3.2193 H         1 <0>         0.1599
     39 H4         -0.8529   -7.0772   -0.1766 H         1 <0>         0.0574
     40 H5          0.1751   -6.6074    1.1889 H         1 <0>         0.0629
     41 H6          3.5311   -4.0088    2.1410 H         1 <0>         0.0614
     42 H7          5.2694   -4.2509    2.1463 H         1 <0>         0.0593
     43 H8          5.0641   -0.5305    2.5137 H         1 <0>         0.0841
     44 H9          3.8399   -0.5392    3.7741 H         1 <0>         0.0679
     45 H10         5.5312   -2.2723    0.6079 H         1 <0>         0.0826
     46 H11         4.4795   -3.5150   -0.0747 H         1 <0>         0.0383
     47 H12        -2.0084   -5.0849   -1.5319 H         1 <0>         0.0556
     48 H13        -1.9126   -3.4583   -0.8533 H         1 <0>         0.0415
     49 H14         2.9188    0.0160    1.5141 H         1 <0>         0.0851
     50 H15        -0.3913   -4.2593    0.9436 H         1 <0>         0.0639
     51 H16         3.9047   -2.8651    4.0450 H         1 <0>         0.0584
     52 H17        -2.7070   -4.2936    1.5593 H         1 <0>         0.0401
     53 H18        -3.0178   -5.7721    0.6290 H         1 <0>         0.0440
     54 H19        -2.0361   -5.8426    2.1053 H         1 <0>         0.0459
     55 H20         6.0310   -3.1862    4.7353 H         1 <0>         0.0456
     56 H21         6.7293   -2.8350    3.1425 H         1 <0>         0.0366
     57 H22         6.2606   -1.5045    4.2187 H         1 <0>         0.0474
     58 H23         5.3842   -0.5386   -0.7426 H         1 <0>         0.0800
     59 H24         6.1956   -2.0004   -1.3135 H         1 <0>         0.0681
     60 H25         4.9119   -1.8947   -3.4517 H         1 <0>         0.0740
     61 H26         4.1396   -0.4017   -2.9334 H         1 <0>         0.0631
     62 H27         7.2104   -0.7195   -3.2063 H         1 <0>         0.0970
     63 H28         7.6418   -0.0344   -1.6309 H         1 <0>         0.0725
     64 H29         3.7703   -3.1244   -1.5692 H         1 <0>         0.0839
     65 H30        -0.1728   -3.4550   -2.4811 H         1 <0>         0.4531
     66 H31         5.5312    3.4654   -3.6900 H         1 <0>         0.4798
     67 H32         6.7041    3.5516   -4.9667 H         1 <0>         0.4881
     68 H33         8.2936    0.3645   -4.2778 H         1 <0>         0.4801
     69 H34         8.3015    1.7651   -5.3104 H         1 <0>         0.4806
     70 H35         5.5108    1.5013   -2.2261 H         1 <0>         0.4689
     71 H36         1.4502   -1.6870   -2.4414 H         1 <0>         0.4505
     72 H37         0.2712   -0.8659    3.3478 H         1 <0>         0.4443
@<TRIPOS>BOND
     1    1    2 ar
     2    1    3 ar
     3    2    4 ar
     4    3    6 ar
     5    4    5 ar
     6    4   10 1
     7    5    6 ar
     8    5   24 1
     9    6   35 1
    10    7   15 1
    11    7   30 2
    12    7   34 1
    13    8   23 1
    14    8   25 am
    15    8   31 2
    16    9   26 1
    17    9   27 1
    18    9   28 1
    19   10   16 1
    20   11   13 1
    21   11   17 1
    22   12   15 1
    23   12   17 1
    24   13   25 1
    25   14   16 1
    26   14   24 1
    27   15   25 1
    28   16   18 1
    29   17   19 1
    30   20   21 1
    31   20   22 1
    32   21   23 1
    33   22   28 1
    34   23   29 1
    35   29   35 1
    36   32   35 2
    37   33   35 2
    38    1   36 1
    39    2   37 1
    40    3   38 1
    41   10   39 1
    42   10   40 1
    43   11   41 1
    44   11   42 1
    45   12   43 1
    46   12   44 1
    47   13   45 1
    48   13   46 1
    49   14   47 1
    50   14   48 1
    51   15   49 1
    52   16   50 1
    53   17   51 1
    54   18   52 1
    55   18   53 1
    56   18   54 1
    57   19   55 1
    58   19   56 1
    59   19   57 1
    60   20   58 1
    61   20   59 1
    62   21   60 1
    63   21   61 1
    64   22   62 1
    65   22   63 1
    66   23   64 1
    67   24   65 1
    68   26   66 1
    69   26   67 1
    70   27   68 1
    71   27   69 1
    72   28   70 1
    73   29   71 1
    74   34   72 1
@<TRIPOS>MOLECULE
1dwc_ligand_283
   72    74     0     0     0
SMALL
USER_CHARGES

mmff94s_NoEstat = 81.02
@<TRIPOS>ATOM
      1 C1         -0.4870   -4.5759    0.1636 C.ar      1 <0>        -0.1945
      2 C2          0.3882   -5.3449    0.9279 C.ar      1 <0>        -0.0294
      3 C3         -0.0840   -4.0945   -1.0785 C.ar      1 <0>        -0.0143
      4 C4          1.6731   -5.6407    0.4508 C.ar      1 <0>        -0.1552
      5 C5          2.0990   -5.1329   -0.7928 C.ar      1 <0>         0.3076
      6 C6          1.1982   -4.3739   -1.5539 C.ar      1 <0>        -0.4908
      7 C7          2.7064   -0.1192    2.3072 C.2       1 <0>         0.5994
      8 C8          2.9466   -1.3973   -0.6457 C.2       1 <0>         0.6462
      9 C9          7.4792    1.6086   -3.5387 C.cat     1 <0>         0.6305
     10 C10         2.6110   -6.4693    1.2956 C.3       1 <0>        -0.0319
     11 C11         5.2891   -2.1972    2.1884 C.3       1 <0>        -0.0918
     12 C12         5.0977    0.3338    1.8863 C.3       1 <0>        -0.0841
     13 C13         4.9490   -2.1654    0.7022 C.3       1 <0>         0.0870
     14 C14         4.3643   -6.0331   -0.4427 C.3       1 <0>         0.2023
     15 C15         3.7674   -0.0162    1.2240 C.3       1 <0>         0.0778
     16 C16         3.7208   -7.1047    0.4435 C.3       1 <0>        -0.0746
     17 C17         5.6645   -0.8131    2.7422 C.3       1 <0>        -0.0681
     18 C18         4.7636   -7.7830    1.3277 C.3       1 <0>        -0.0944
     19 C19         7.1799   -0.6635    2.8882 C.3       1 <0>        -0.0918
     20 C20         4.0666    0.0061   -3.0917 C.3       1 <0>        -0.1192
     21 C21         4.5564   -1.3488   -2.5679 C.3       1 <0>        -0.0916
     22 C22         5.1498    0.7503   -3.8628 C.3       1 <0>         0.1883
     23 C23         3.4544   -2.1251   -1.8653 C.3       1 <0>         0.1952
     24 N1          3.3660   -5.4103   -1.2913 N.pl3     1 <0>        -0.7670
     25 N2          3.8547   -1.2301    0.4039 N.am      1 <0>        -0.4509
     26 N3          8.5899    1.8298   -2.7310 N.pl3     1 <0>        -0.8477
     27 N4          7.5182    2.0100   -4.8696 N.pl3     1 <0>        -0.8633
     28 N5          6.3266    0.9918   -3.0404 N.pl3     1 <0>        -0.7419
     29 N6          2.2741   -2.2179   -2.7432 N.pl3     1 <0>        -0.8860
     30 O1          2.4216    0.7685    3.0973 O.2       1 <0>        -0.5199
     31 O2          1.7818   -0.9917   -0.6208 O.2       1 <0>        -0.6131
     32 O3          2.6686   -4.5798   -3.6918 O.2       1 <0>        -0.6576
     33 O4          0.3811   -3.5494   -3.8650 O.2       1 <0>        -0.6482
     34 O5          2.1141   -1.3382    2.2827 O.3       1 <0>        -0.6303
     35 S1          1.6226   -3.7401   -3.1398 S.o2      1 <0>         1.5193
     36 H1         -1.4838   -4.3554    0.5354 H         1 <0>         0.1426
     37 H2          0.0637   -5.7192    1.8959 H         1 <0>         0.1398
     38 H3         -0.7593   -3.4996   -1.6852 H         1 <0>         0.1599
     39 H4          3.0465   -5.8195    2.0653 H         1 <0>         0.0574
     40 H5          2.0518   -7.2634    1.8055 H         1 <0>         0.0629
     41 H6          4.4096   -2.5633    2.7347 H         1 <0>         0.0614
     42 H7          6.0897   -2.9223    2.3757 H         1 <0>         0.0593
     43 H8          5.8186    0.5861    1.0964 H         1 <0>         0.0841
     44 H9          4.9971    1.2321    2.5089 H         1 <0>         0.0679
     45 H10         5.8170   -1.8466    0.1132 H         1 <0>         0.0826
     46 H11         4.6769   -3.1705    0.3656 H         1 <0>         0.0383
     47 H12         4.8493   -5.2648    0.1722 H         1 <0>         0.0556
     48 H13         5.1400   -6.4799   -1.0745 H         1 <0>         0.0415
     49 H14         3.4560    0.8159    0.5811 H         1 <0>         0.0851
     50 H15         3.2738   -7.8730   -0.2019 H         1 <0>         0.0639
     51 H16         5.2454   -0.7368    3.7536 H         1 <0>         0.0584
     52 H17         5.4090   -8.4341    0.7304 H         1 <0>         0.0401
     53 H18         5.3914   -7.0367    1.8236 H         1 <0>         0.0440
     54 H19         4.2783   -8.3911    2.0970 H         1 <0>         0.0459
     55 H20         7.4927   -0.8988    3.9099 H         1 <0>         0.0456
     56 H21         7.7008   -1.3400    2.2040 H         1 <0>         0.0366
     57 H22         7.4886    0.3613    2.6609 H         1 <0>         0.0474
     58 H23         3.1961   -0.1462   -3.7411 H         1 <0>         0.0800
     59 H24         3.7428    0.6319   -2.2522 H         1 <0>         0.0681
     60 H25         5.4094   -1.1917   -1.8946 H         1 <0>         0.0740
     61 H26         4.9285   -1.9502   -3.4070 H         1 <0>         0.0631
     62 H27         4.7831    1.7144   -4.2291 H         1 <0>         0.0970
     63 H28         5.4669    0.1582   -4.7272 H         1 <0>         0.0725
     64 H29         3.7703   -3.1244   -1.5692 H         1 <0>         0.0839
     65 H30         3.6532   -4.9620   -2.1525 H         1 <0>         0.4531
     66 H31         8.6061    1.5552   -1.7524 H         1 <0>         0.4798
     67 H32         9.4239    2.2796   -3.1013 H         1 <0>         0.4881
     68 H33         6.7239    1.8637   -5.4879 H         1 <0>         0.4801
     69 H34         8.3428    2.4597   -5.2600 H         1 <0>         0.4806
     70 H35         6.3281    0.7083   -2.0595 H         1 <0>         0.4689
     71 H36         1.6613   -1.3957   -2.7560 H         1 <0>         0.4505
     72 H37         1.4264   -1.4253    2.9768 H         1 <0>         0.4443
@<TRIPOS>BOND
     1    1    2 ar
     2    1    3 ar
     3    2    4 ar
     4    3    6 ar
     5    4    5 ar
     6    4   10 1
     7    5    6 ar
     8    5   24 1
     9    6   35 1
    10    7   15 1
    11    7   30 2
    12    7   34 1
    13    8   23 1
    14    8   25 am
    15    8   31 2
    16    9   26 1
    17    9   27 1
    18    9   28 1
    19   10   16 1
    20   11   13 1
    21   11   17 1
    22   12   15 1
    23   12   17 1
    24   13   25 1
    25   14   16 1
    26   14   24 1
    27   15   25 1
    28   16   18 1
    29   17   19 1
    30   20   21 1
    31   20   22 1
    32   21   23 1
    33   22   28 1
    34   23   29 1
    35   29   35 1
    36   32   35 2
    37   33   35 2
    38    1   36 1
    39    2   37 1
    40    3   38 1
    41   10   39 1
    42   10   40 1
    43   11   41 1
    44   11   42 1
    45   12   43 1
    46   12   44 1
    47   13   45 1
    48   13   46 1
    49   14   47 1
    50   14   48 1
    51   15   49 1
    52   16   50 1
    53   17   51 1
    54   18   52 1
    55   18   53 1
    56   18   54 1
    57   19   55 1
    58   19   56 1
    59   19   57 1
    60   20   58 1
    61   20   59 1
    62   21   60 1
    63   21   61 1
    64   22   62 1
    65   22   63 1
    66   23   64 1
    67   24   65 1
    68   26   66 1
    69   26   67 1
    70   27   68 1
    71   27   69 1
    72   28   70 1
    73   29   71 1
    74   34   72 1
@<TRIPOS>MOLECULE
1dwc_ligand_284
   72    74     0     0     0
SMALL
USER_CHARGES

mmff94s_NoEstat = 81.03
@<TRIPOS>ATOM
      1 C1          3.2154   -6.5240   -1.2843 C.ar      1 <0>        -0.1945
      2 C2          2.0271   -6.9417   -0.6886 C.ar      1 <0>        -0.0294
      3 C3          3.1981   -5.4928   -2.2187 C.ar      1 <0>        -0.0143
      4 C4          0.8124   -6.3257   -1.0224 C.ar      1 <0>        -0.1552
      5 C5          0.7824   -5.3007   -1.9888 C.ar      1 <0>         0.3076
      6 C6          1.9909   -4.8841   -2.5656 C.ar      1 <0>        -0.4908
      7 C7          2.7064   -0.1192    2.3072 C.2       1 <0>         0.5994
      8 C8          2.9466   -1.3973   -0.6457 C.2       1 <0>         0.6462
      9 C9          7.4792    1.6086   -3.5387 C.cat     1 <0>         0.6305
     10 C10        -0.4668   -6.7962   -0.3725 C.3       1 <0>        -0.0319
     11 C11         5.2891   -2.1972    2.1884 C.3       1 <0>        -0.0918
     12 C12         5.0977    0.3338    1.8863 C.3       1 <0>        -0.0841
     13 C13         4.9490   -2.1654    0.7022 C.3       1 <0>         0.0870
     14 C14        -1.6766   -5.2108   -1.8920 C.3       1 <0>         0.2023
     15 C15         3.7674   -0.0162    1.2240 C.3       1 <0>         0.0778
     16 C16        -1.5644   -5.7236   -0.4525 C.3       1 <0>        -0.0746
     17 C17         5.6645   -0.8131    2.7422 C.3       1 <0>        -0.0681
     18 C18        -2.9001   -6.2753    0.0382 C.3       1 <0>        -0.0944
     19 C19         7.1799   -0.6635    2.8882 C.3       1 <0>        -0.0918
     20 C20         4.0666    0.0061   -3.0917 C.3       1 <0>        -0.1192
     21 C21         4.5564   -1.3488   -2.5679 C.3       1 <0>        -0.0916
     22 C22         5.1498    0.7503   -3.8628 C.3       1 <0>         0.1883
     23 C23         3.4544   -2.1251   -1.8653 C.3       1 <0>         0.1952
     24 N1         -0.4061   -4.6718   -2.3389 N.pl3     1 <0>        -0.7670
     25 N2          3.8547   -1.2301    0.4039 N.am      1 <0>        -0.4509
     26 N3          8.5899    1.8298   -2.7310 N.pl3     1 <0>        -0.8477
     27 N4          7.5182    2.0100   -4.8696 N.pl3     1 <0>        -0.8633
     28 N5          6.3266    0.9918   -3.0404 N.pl3     1 <0>        -0.7419
     29 N6          2.2741   -2.2179   -2.7432 N.pl3     1 <0>        -0.8860
     30 O1          2.4216    0.7685    3.0973 O.2       1 <0>        -0.5199
     31 O2          1.7818   -0.9917   -0.6208 O.2       1 <0>        -0.6131
     32 O3          3.2466   -3.7694   -4.5546 O.2       1 <0>        -0.6576
     33 O4          0.7526   -3.5048   -4.3692 O.2       1 <0>        -0.6482
     34 O5          2.1141   -1.3382    2.2827 O.3       1 <0>        -0.6303
     35 S1          2.0591   -3.5786   -3.7438 S.o2      1 <0>         1.5193
     36 H1          4.1546   -7.0004   -1.0168 H         1 <0>         0.1426
     37 H2          2.0504   -7.7462    0.0426 H         1 <0>         0.1398
     38 H3          4.1183   -5.1550   -2.6846 H         1 <0>         0.1599
     39 H4         -0.7932   -7.7137   -0.8784 H         1 <0>         0.0574
     40 H5         -0.2825   -7.0422    0.6805 H         1 <0>         0.0629
     41 H6          4.4096   -2.5633    2.7347 H         1 <0>         0.0614
     42 H7          6.0897   -2.9223    2.3757 H         1 <0>         0.0593
     43 H8          5.8186    0.5861    1.0964 H         1 <0>         0.0841
     44 H9          4.9971    1.2321    2.5089 H         1 <0>         0.0679
     45 H10         5.8170   -1.8466    0.1132 H         1 <0>         0.0826
     46 H11         4.6769   -3.1705    0.3656 H         1 <0>         0.0383
     47 H12        -1.9859   -6.0193   -2.5661 H         1 <0>         0.0556
     48 H13        -2.4387   -4.4261   -1.9562 H         1 <0>         0.0415
     49 H14         3.4560    0.8159    0.5811 H         1 <0>         0.0851
     50 H15        -1.2856   -4.8844    0.1991 H         1 <0>         0.0639
     51 H16         5.2454   -0.7368    3.7536 H         1 <0>         0.0584
     52 H17        -3.6114   -5.4623    0.2119 H         1 <0>         0.0401
     53 H18        -3.3299   -6.9569   -0.7020 H         1 <0>         0.0440
     54 H19        -2.7683   -6.8236    0.9758 H         1 <0>         0.0459
     55 H20         7.4927   -0.8988    3.9099 H         1 <0>         0.0456
     56 H21         7.7008   -1.3400    2.2040 H         1 <0>         0.0366
     57 H22         7.4886    0.3613    2.6609 H         1 <0>         0.0474
     58 H23         3.1961   -0.1462   -3.7411 H         1 <0>         0.0800
     59 H24         3.7428    0.6319   -2.2522 H         1 <0>         0.0681
     60 H25         5.4094   -1.1917   -1.8946 H         1 <0>         0.0740
     61 H26         4.9285   -1.9502   -3.4070 H         1 <0>         0.0631
     62 H27         4.7831    1.7144   -4.2291 H         1 <0>         0.0970
     63 H28         5.4669    0.1582   -4.7272 H         1 <0>         0.0725
     64 H29         3.7703   -3.1244   -1.5692 H         1 <0>         0.0839
     65 H30        -0.3888   -3.9943   -3.0913 H         1 <0>         0.4531
     66 H31         8.6061    1.5552   -1.7524 H         1 <0>         0.4798
     67 H32         9.4239    2.2796   -3.1013 H         1 <0>         0.4881
     68 H33         6.7239    1.8637   -5.4879 H         1 <0>         0.4801
     69 H34         8.3428    2.4597   -5.2600 H         1 <0>         0.4806
     70 H35         6.3281    0.7083   -2.0595 H         1 <0>         0.4689
     71 H36         1.4502   -1.6870   -2.4414 H         1 <0>         0.4505
     72 H37         1.4264   -1.4253    2.9768 H         1 <0>         0.4443
@<TRIPOS>BOND
     1    1    2 ar
     2    1    3 ar
     3    2    4 ar
     4    3    6 ar
     5    4    5 ar
     6    4   10 1
     7    5    6 ar
     8    5   24 1
     9    6   35 1
    10    7   15 1
    11    7   30 2
    12    7   34 1
    13    8   23 1
    14    8   25 am
    15    8   31 2
    16    9   26 1
    17    9   27 1
    18    9   28 1
    19   10   16 1
    20   11   13 1
    21   11   17 1
    22   12   15 1
    23   12   17 1
    24   13   25 1
    25   14   16 1
    26   14   24 1
    27   15   25 1
    28   16   18 1
    29   17   19 1
    30   20   21 1
    31   20   22 1
    32   21   23 1
    33   22   28 1
    34   23   29 1
    35   29   35 1
    36   32   35 2
    37   33   35 2
    38    1   36 1
    39    2   37 1
    40    3   38 1
    41   10   39 1
    42   10   40 1
    43   11   41 1
    44   11   42 1
    45   12   43 1
    46   12   44 1
    47   13   45 1
    48   13   46 1
    49   14   47 1
    50   14   48 1
    51   15   49 1
    52   16   50 1
    53   17   51 1
    54   18   52 1
    55   18   53 1
    56   18   54 1
    57   19   55 1
    58   19   56 1
    59   19   57 1
    60   20   58 1
    61   20   59 1
    62   21   60 1
    63   21   61 1
    64   22   62 1
    65   22   63 1
    66   23   64 1
    67   24   65 1
    68   26   66 1
    69   26   67 1
    70   27   68 1
    71   27   69 1
    72   28   70 1
    73   29   71 1
    74   34   72 1
@<TRIPOS>MOLECULE
1dwc_ligand_285
   72    74     0     0     0
SMALL
USER_CHARGES

mmff94s_NoEstat = 81.06
@<TRIPOS>ATOM
      1 C1         -1.9204   -5.9597    0.9167 C.ar      1 <0>        -0.1945
      2 C2         -2.6129   -6.8721    1.7099 C.ar      1 <0>        -0.0294
      3 C3         -0.7171   -5.4239    1.3655 C.ar      1 <0>        -0.0143
      4 C4         -2.1063   -7.2516    2.9613 C.ar      1 <0>        -0.1552
      5 C5         -0.8748   -6.7358    3.4102 C.ar      1 <0>         0.3076
      6 C6         -0.2004   -5.8068    2.6044 C.ar      1 <0>        -0.4908
      7 C7         -0.2549    0.4306    0.6330 C.2       1 <0>         0.5994
      8 C8          0.8654   -1.4427    3.2413 C.2       1 <0>         0.6462
      9 C9         -4.0845   -0.2977    6.4931 C.cat     1 <0>         0.6305
     10 C10        -2.8672   -8.2479    3.8027 C.3       1 <0>        -0.0319
     11 C11         3.3665   -0.6443    0.6676 C.3       1 <0>        -0.0918
     12 C12         1.2181   -1.2005   -0.4907 C.3       1 <0>        -0.0841
     13 C13         2.5847   -0.2704    1.9206 C.3       1 <0>         0.0870
     14 C14        -0.9324   -8.1812    5.4045 C.3       1 <0>         0.2023
     15 C15         0.4427   -0.9096    0.7969 C.3       1 <0>         0.0778
     16 C16        -2.4601   -8.2004    5.2844 C.3       1 <0>        -0.0746
     17 C17         2.5288   -0.4088   -0.5919 C.3       1 <0>        -0.0681
     18 C18        -3.1055   -7.0187    6.0172 C.3       1 <0>        -0.0944
     19 C19         3.3078   -0.8065   -1.8442 C.3       1 <0>        -0.0918
     20 C20        -2.1115   -1.2711    3.3990 C.3       1 <0>        -0.1192
     21 C21        -1.3133   -2.4479    3.9716 C.3       1 <0>        -0.0916
     22 C22        -3.3821   -0.9970    4.1941 C.3       1 <0>         0.1883
     23 C23        -0.0078   -2.6730    3.2260 C.3       1 <0>         0.1952
     24 N1         -0.3520   -7.0877    4.6483 N.pl3     1 <0>        -0.7670
     25 N2          1.2915   -0.9578    1.9994 N.am      1 <0>        -0.4509
     26 N3         -3.7764    0.0291    7.8096 N.pl3     1 <0>        -0.8477
     27 N4         -5.4128   -0.2742    6.0819 N.pl3     1 <0>        -0.8633
     28 N5         -3.0875   -0.6486    5.5765 N.pl3     1 <0>        -0.7419
     29 N6          0.7961   -3.6905    3.9267 N.pl3     1 <0>        -0.8860
     30 O1          0.1931    1.5051    1.0045 O.2       1 <0>        -0.5199
     31 O2          1.1650   -0.9321    4.3240 O.2       1 <0>        -0.6131
     32 O3          1.9670   -5.9819    4.0350 O.2       1 <0>        -0.6576
     33 O4          2.0121   -4.6764    1.8861 O.2       1 <0>        -0.6482
     34 O5         -1.4521    0.2749    0.0168 O.3       1 <0>        -0.6303
     35 S1          1.3247   -5.0804    3.0977 S.o2      1 <0>         1.5193
     36 H1         -2.3209   -5.6644   -0.0494 H         1 <0>         0.1426
     37 H2         -3.5539   -7.2835    1.3524 H         1 <0>         0.1398
     38 H3         -0.1718   -4.7077    0.7589 H         1 <0>         0.1599
     39 H4         -3.9465   -8.0739    3.7129 H         1 <0>         0.0574
     40 H5         -2.6594   -9.2490    3.4036 H         1 <0>         0.0629
     41 H6          4.2893   -0.0541    0.6219 H         1 <0>         0.0614
     42 H7          3.6617   -1.6999    0.7239 H         1 <0>         0.0593
     43 H8          1.4535   -2.2733   -0.5175 H         1 <0>         0.0841
     44 H9          0.5944   -0.9953   -1.3701 H         1 <0>         0.0679
     45 H10         3.1909   -0.4908    2.8053 H         1 <0>         0.0826
     46 H11         2.3782    0.8066    1.9340 H         1 <0>         0.0383
     47 H12        -0.6332   -8.0929    6.4548 H         1 <0>         0.0556
     48 H13        -0.5209   -9.1275    5.0322 H         1 <0>         0.0415
     49 H14        -0.3616   -1.6465    0.8882 H         1 <0>         0.0851
     50 H15        -2.8361   -9.1085    5.7717 H         1 <0>         0.0639
     51 H16         2.2982    0.6607   -0.6719 H         1 <0>         0.0584
     52 H17        -3.6244   -6.3649    5.3098 H         1 <0>         0.0401
     53 H18        -3.8316   -7.3737    6.7546 H         1 <0>         0.0440
     54 H19        -2.3459   -6.4283    6.5381 H         1 <0>         0.0459
     55 H20         2.6382   -1.2449   -2.5902 H         1 <0>         0.0456
     56 H21         3.7937    0.0674   -2.2885 H         1 <0>         0.0366
     57 H22         4.0794   -1.5424   -1.5992 H         1 <0>         0.0474
     58 H23        -1.4838   -0.3719    3.3933 H         1 <0>         0.0800
     59 H24        -2.3885   -1.4831    2.3599 H         1 <0>         0.0681
     60 H25        -1.9335   -3.3536    3.9489 H         1 <0>         0.0740
     61 H26        -1.0849   -2.2531    5.0271 H         1 <0>         0.0631
     62 H27        -4.0449   -1.8681    4.1933 H         1 <0>         0.0970
     63 H28        -3.9265   -0.1572    3.7507 H         1 <0>         0.0725
     64 H29        -0.1638   -2.9774    2.1921 H         1 <0>         0.0839
     65 H30         0.5706   -6.7495    4.8928 H         1 <0>         0.4531
     66 H31        -2.8204    0.0236    8.1552 H         1 <0>         0.4798
     67 H32        -4.5077    0.2825    8.4699 H         1 <0>         0.4881
     68 H33        -5.6732   -0.5076    5.1268 H         1 <0>         0.4801
     69 H34        -6.1589   -0.0219    6.7256 H         1 <0>         0.4806
     70 H35        -2.1217   -0.6567    5.9080 H         1 <0>         0.4689
     71 H36         1.3354   -3.3564    4.7325 H         1 <0>         0.4505
     72 H37        -1.9197    1.1298   -0.0968 H         1 <0>         0.4443
@<TRIPOS>BOND
     1    1    2 ar
     2    1    3 ar
     3    2    4 ar
     4    3    6 ar
     5    4    5 ar
     6    4   10 1
     7    5    6 ar
     8    5   24 1
     9    6   35 1
    10    7   15 1
    11    7   30 2
    12    7   34 1
    13    8   23 1
    14    8   25 am
    15    8   31 2
    16    9   26 1
    17    9   27 1
    18    9   28 1
    19   10   16 1
    20   11   13 1
    21   11   17 1
    22   12   15 1
    23   12   17 1
    24   13   25 1
    25   14   16 1
    26   14   24 1
    27   15   25 1
    28   16   18 1
    29   17   19 1
    30   20   21 1
    31   20   22 1
    32   21   23 1
    33   22   28 1
    34   23   29 1
    35   29   35 1
    36   32   35 2
    37   33   35 2
    38    1   36 1
    39    2   37 1
    40    3   38 1
    41   10   39 1
    42   10   40 1
    43   11   41 1
    44   11   42 1
    45   12   43 1
    46   12   44 1
    47   13   45 1
    48   13   46 1
    49   14   47 1
    50   14   48 1
    51   15   49 1
    52   16   50 1
    53   17   51 1
    54   18   52 1
    55   18   53 1
    56   18   54 1
    57   19   55 1
    58   19   56 1
    59   19   57 1
    60   20   58 1
    61   20   59 1
    62   21   60 1
    63   21   61 1
    64   22   62 1
    65   22   63 1
    66   23   64 1
    67   24   65 1
    68   26   66 1
    69   26   67 1
    70   27   68 1
    71   27   69 1
    72   28   70 1
    73   29   71 1
    74   34   72 1
@<TRIPOS>MOLECULE
1dwc_ligand_286
   72    74     0     0     0
SMALL
USER_CHARGES

mmff94s_NoEstat = 81.11
@<TRIPOS>ATOM
      1 C1          1.9247   -5.6076   -5.8968 C.ar      1 <0>        -0.1945
      2 C2          2.8785   -6.5393   -5.4922 C.ar      1 <0>        -0.0294
      3 C3          1.4180   -4.6909   -4.9805 C.ar      1 <0>        -0.0143
      4 C4          3.3347   -6.5563   -4.1664 C.ar      1 <0>        -0.1552
      5 C5          2.8054   -5.6505   -3.2257 C.ar      1 <0>         0.3076
      6 C6          1.8576   -4.7107   -3.6559 C.ar      1 <0>        -0.4908
      7 C7          1.7641   -2.7212    2.0487 C.2       1 <0>         0.5994
      8 C8          2.9466   -1.3973   -0.6457 C.2       1 <0>         0.6462
      9 C9          6.7753    0.8568   -5.4736 C.cat     1 <0>         0.6305
     10 C10         4.3633   -7.5778   -3.7437 C.3       1 <0>        -0.0319
     11 C11         5.0423   -3.2056    1.9033 C.3       1 <0>        -0.0918
     12 C12         3.6127   -1.4179    3.0409 C.3       1 <0>        -0.0841
     13 C13         4.8985   -2.2417    0.7304 C.3       1 <0>         0.0870
     14 C14         4.0746   -6.7191   -1.4059 C.3       1 <0>         0.2023
     15 C15         2.7323   -1.5757    1.8036 C.3       1 <0>         0.0778
     16 C16         5.0972   -7.1398   -2.4665 C.3       1 <0>        -0.0746
     17 C17         4.5907   -2.5900    3.2377 C.3       1 <0>        -0.0681
     18 C18         5.9974   -8.2574   -1.9467 C.3       1 <0>        -0.0944
     19 C19         5.7878   -2.1430    4.0786 C.3       1 <0>        -0.0918
     20 C20         5.1203   -2.1076   -3.7746 C.3       1 <0>        -0.1192
     21 C21         4.5564   -1.3488   -2.5679 C.3       1 <0>        -0.0916
     22 C22         6.2766   -1.3646   -4.4322 C.3       1 <0>         0.1883
     23 C23         3.4544   -2.1251   -1.8653 C.3       1 <0>         0.1952
     24 N1          3.2389   -5.6437   -1.9056 N.pl3     1 <0>        -0.7670
     25 N2          3.5192   -1.7560    0.5781 N.am      1 <0>        -0.4509
     26 N3          6.3666    2.1153   -5.9029 N.pl3     1 <0>        -0.8477
     27 N4          8.1063    0.4860   -5.6311 N.pl3     1 <0>        -0.8633
     28 N5          5.8764   -0.0411   -4.8880 N.pl3     1 <0>        -0.7419
     29 N6          2.2741   -2.2179   -2.7432 N.pl3     1 <0>        -0.8860
     30 O1          0.9797   -2.7895    2.9833 O.2       1 <0>        -0.5199
     31 O2          2.0685   -0.5400   -0.7710 O.2       1 <0>        -0.6131
     32 O3         -0.1165   -3.1121   -3.0880 O.2       1 <0>        -0.6576
     33 O4          1.2896   -4.0436   -1.2226 O.2       1 <0>        -0.6482
     34 O5          1.8885   -3.6674    1.0861 O.3       1 <0>        -0.6303
     35 S1          1.1775   -3.5081   -2.5659 S.o2      1 <0>         1.5193
     36 H1          1.5799   -5.5947   -6.9271 H         1 <0>         0.1426
     37 H2          3.2711   -7.2499   -6.2157 H         1 <0>         0.1398
     38 H3          0.6792   -3.9566   -5.2858 H         1 <0>         0.1599
     39 H4          3.8515   -8.5347   -3.5798 H         1 <0>         0.0574
     40 H5          5.0968   -7.7238   -4.5461 H         1 <0>         0.0629
     41 H6          4.4221   -4.0890    1.7005 H         1 <0>         0.0614
     42 H7          6.0756   -3.5656    1.9699 H         1 <0>         0.0593
     43 H8          4.1829   -0.4841    2.9397 H         1 <0>         0.0841
     44 H9          2.9979   -1.3064    3.9432 H         1 <0>         0.0679
     45 H10         5.5377   -1.3623    0.8715 H         1 <0>         0.0826
     46 H11         5.2196   -2.7347   -0.1923 H         1 <0>         0.0383
     47 H12         3.4420   -7.5692   -1.1218 H         1 <0>         0.0556
     48 H13         4.5874   -6.3794   -0.4991 H         1 <0>         0.0415
     49 H14         2.1101   -0.6800    1.6885 H         1 <0>         0.0851
     50 H15         5.7334   -6.2764   -2.7038 H         1 <0>         0.0639
     51 H16         4.0846   -3.3774    3.8106 H         1 <0>         0.0584
     52 H17         6.6935   -7.8722   -1.1957 H         1 <0>         0.0401
     53 H18         5.3996   -9.0505   -1.4878 H         1 <0>         0.0440
     54 H19         6.5793   -8.6936   -2.7641 H         1 <0>         0.0459
     55 H20         6.0635   -2.9197    4.7982 H         1 <0>         0.0456
     56 H21         6.6531   -1.9424    3.4397 H         1 <0>         0.0366
     57 H22         5.5491   -1.2299    4.6321 H         1 <0>         0.0474
     58 H23         5.4592   -3.1007   -3.4560 H         1 <0>         0.0800
     59 H24         4.3307   -2.2553   -4.5204 H         1 <0>         0.0681
     60 H25         4.1906   -0.3664   -2.8945 H         1 <0>         0.0740
     61 H26         5.3633   -1.1575   -1.8491 H         1 <0>         0.0631
     62 H27         6.6666   -1.9201   -5.2910 H         1 <0>         0.0970
     63 H28         7.0930   -1.2338   -3.7147 H         1 <0>         0.0725
     64 H29         3.7703   -3.1244   -1.5692 H         1 <0>         0.0839
     65 H30         2.7759   -5.0262   -1.2500 H         1 <0>         0.4531
     66 H31         5.4041    2.4285   -5.8100 H         1 <0>         0.4798
     67 H32         7.0268    2.7620   -6.3283 H         1 <0>         0.4881
     68 H33         8.4388   -0.4263   -5.3285 H         1 <0>         0.4801
     69 H34         8.7827    1.1182   -6.0523 H         1 <0>         0.4806
     70 H35         4.9060    0.2597   -4.7858 H         1 <0>         0.4689
     71 H36         1.9407   -1.3323   -3.1385 H         1 <0>         0.4505
     72 H37         1.2722   -4.4174    1.2277 H         1 <0>         0.4443
@<TRIPOS>BOND
     1    1    2 ar
     2    1    3 ar
     3    2    4 ar
     4    3    6 ar
     5    4    5 ar
     6    4   10 1
     7    5    6 ar
     8    5   24 1
     9    6   35 1
    10    7   15 1
    11    7   30 2
    12    7   34 1
    13    8   23 1
    14    8   25 am
    15    8   31 2
    16    9   26 1
    17    9   27 1
    18    9   28 1
    19   10   16 1
    20   11   13 1
    21   11   17 1
    22   12   15 1
    23   12   17 1
    24   13   25 1
    25   14   16 1
    26   14   24 1
    27   15   25 1
    28   16   18 1
    29   17   19 1
    30   20   21 1
    31   20   22 1
    32   21   23 1
    33   22   28 1
    34   23   29 1
    35   29   35 1
    36   32   35 2
    37   33   35 2
    38    1   36 1
    39    2   37 1
    40    3   38 1
    41   10   39 1
    42   10   40 1
    43   11   41 1
    44   11   42 1
    45   12   43 1
    46   12   44 1
    47   13   45 1
    48   13   46 1
    49   14   47 1
    50   14   48 1
    51   15   49 1
    52   16   50 1
    53   17   51 1
    54   18   52 1
    55   18   53 1
    56   18   54 1
    57   19   55 1
    58   19   56 1
    59   19   57 1
    60   20   58 1
    61   20   59 1
    62   21   60 1
    63   21   61 1
    64   22   62 1
    65   22   63 1
    66   23   64 1
    67   24   65 1
    68   26   66 1
    69   26   67 1
    70   27   68 1
    71   27   69 1
    72   28   70 1
    73   29   71 1
    74   34   72 1
@<TRIPOS>MOLECULE
1dwc_ligand_287
   72    74     0     0     0
SMALL
USER_CHARGES

mmff94s_NoEstat = 81.12
@<TRIPOS>ATOM
      1 C1         -2.0732   -6.1389    5.6806 C.ar      1 <0>        -0.1945
      2 C2         -2.6808   -6.9079    4.6902 C.ar      1 <0>        -0.0294
      3 C3         -2.0299   -4.7535    5.5544 C.ar      1 <0>        -0.0143
      4 C4         -3.2534   -6.2935    3.5673 C.ar      1 <0>        -0.1552
      5 C5         -3.1881   -4.8939    3.4179 C.ar      1 <0>         0.3076
      6 C6         -2.5860   -4.1361    4.4328 C.ar      1 <0>        -0.4908
      7 C7          3.7233   -2.4449    4.7893 C.2       1 <0>         0.5994
      8 C8          0.8654   -1.4427    3.2413 C.2       1 <0>         0.6462
      9 C9         -0.6326   -5.9229   -1.4626 C.cat     1 <0>         0.6305
     10 C10        -3.9012   -7.1431    2.5003 C.3       1 <0>        -0.0319
     11 C11         1.7658    0.4222    6.2790 C.3       1 <0>        -0.0918
     12 C12         2.2228   -2.0030    6.6989 C.3       1 <0>        -0.0841
     13 C13         1.9003    0.1799    4.7810 C.3       1 <0>         0.0870
     14 C14        -4.2059   -5.0337    1.1799 C.3       1 <0>         0.2023
     15 C15         2.2690   -2.2605    5.1905 C.3       1 <0>         0.0778
     16 C16        -4.8855   -6.3235    1.6511 C.3       1 <0>        -0.0746
     17 C17         2.6202   -0.5689    7.0736 C.3       1 <0>        -0.0681
     18 C18        -5.3916   -7.1408    0.4657 C.3       1 <0>        -0.0944
     19 C19         2.4647   -0.3375    8.5754 C.3       1 <0>        -0.0918
     20 C20         0.0249   -2.8727    0.7002 C.3       1 <0>        -0.1192
     21 C21         0.3004   -3.5693    2.0376 C.3       1 <0>        -0.0916
     22 C22         0.2602   -3.7963   -0.4886 C.3       1 <0>         0.1883
     23 C23        -0.0078   -2.6730    3.2260 C.3       1 <0>         0.1952
     24 N1         -3.7473   -4.2576    2.3165 N.pl3     1 <0>        -0.7670
     25 N2          1.5999   -1.2067    4.4091 N.am      1 <0>        -0.4509
     26 N3         -1.4804   -7.0239   -1.4014 N.pl3     1 <0>        -0.8477
     27 N4          0.2178   -5.7819   -2.5539 N.pl3     1 <0>        -0.8633
     28 N5         -0.6182   -4.9567   -0.4508 N.pl3     1 <0>        -0.7419
     29 N6         -1.3760   -2.1385    3.1042 N.pl3     1 <0>        -0.8860
     30 O1          4.6129   -2.8312    5.5328 O.2       1 <0>        -0.5199
     31 O2          0.8891   -0.7105    2.2483 O.2       1 <0>        -0.6131
     32 O3         -3.7998   -1.8872    3.9383 O.2       1 <0>        -0.6576
     33 O4         -1.9207   -1.9310    5.6091 O.2       1 <0>        -0.6482
     34 O5          3.9056   -2.1185    3.4864 O.3       1 <0>        -0.6303
     35 S1         -2.5018   -2.3799    4.3583 S.o2      1 <0>         1.5193
     36 H1         -1.6372   -6.6199    6.5517 H         1 <0>         0.1426
     37 H2         -2.7127   -7.9895    4.7986 H         1 <0>         0.1398
     38 H3         -1.5647   -4.1439    6.3224 H         1 <0>         0.1599
     39 H4         -3.1097   -7.5632    1.8667 H         1 <0>         0.0574
     40 H5         -4.4383   -7.9798    2.9637 H         1 <0>         0.0629
     41 H6          2.0669    1.4503    6.5123 H         1 <0>         0.0614
     42 H7          0.7128    0.3207    6.5714 H         1 <0>         0.0593
     43 H8          1.1978   -2.1858    7.0494 H         1 <0>         0.0841
     44 H9          2.8666   -2.7151    7.2306 H         1 <0>         0.0679
     45 H10         1.2456    0.8722    4.2416 H         1 <0>         0.0826
     46 H11         2.9258    0.3867    4.4518 H         1 <0>         0.0383
     47 H12        -3.3535   -5.2630    0.5284 H         1 <0>         0.0556
     48 H13        -4.9071   -4.4281    0.5950 H         1 <0>         0.0415
     49 H14         1.7884   -3.2235    4.9909 H         1 <0>         0.0851
     50 H15        -5.7514   -6.0581    2.2728 H         1 <0>         0.0639
     51 H16         3.6763   -0.4106    6.8224 H         1 <0>         0.0584
     52 H17        -6.2610   -6.6582    0.0093 H         1 <0>         0.0401
     53 H18        -4.6118   -7.2373   -0.2957 H         1 <0>         0.0440
     54 H19        -5.6846   -8.1445    0.7879 H         1 <0>         0.0459
     55 H20         2.1532   -1.2591    9.0761 H         1 <0>         0.0456
     56 H21         3.4121   -0.0103    9.0142 H         1 <0>         0.0366
     57 H22         1.7112    0.4316    8.7697 H         1 <0>         0.0474
     58 H23        -1.0105   -2.5120    0.6824 H         1 <0>         0.0800
     59 H24         0.6776   -1.9980    0.5976 H         1 <0>         0.0681
     60 H25         1.3460   -3.9033    2.0652 H         1 <0>         0.0740
     61 H26        -0.3175   -4.4733    2.1109 H         1 <0>         0.0631
     62 H27         1.2957   -4.1503   -0.5157 H         1 <0>         0.0970
     63 H28         0.0608   -3.2615   -1.4226 H         1 <0>         0.0725
     64 H29         0.1003   -3.1895    4.1787 H         1 <0>         0.0839
     65 H30        -3.6095   -3.2595    2.2158 H         1 <0>         0.4531
     66 H31        -2.1173   -7.1693   -0.6226 H         1 <0>         0.4798
     67 H32        -1.4841   -7.7223   -2.1412 H         1 <0>         0.4881
     68 H33         0.8505   -4.9892   -2.6303 H         1 <0>         0.4801
     69 H34         0.2286   -6.4677   -3.3050 H         1 <0>         0.4806
     70 H35        -1.2539   -5.0876    0.3375 H         1 <0>         0.4689
     71 H36        -1.4850   -1.3266    2.4871 H         1 <0>         0.4505
     72 H37         4.8398   -2.2291    3.2082 H         1 <0>         0.4443
@<TRIPOS>BOND
     1    1    2 ar
     2    1    3 ar
     3    2    4 ar
     4    3    6 ar
     5    4    5 ar
     6    4   10 1
     7    5    6 ar
     8    5   24 1
     9    6   35 1
    10    7   15 1
    11    7   30 2
    12    7   34 1
    13    8   23 1
    14    8   25 am
    15    8   31 2
    16    9   26 1
    17    9   27 1
    18    9   28 1
    19   10   16 1
    20   11   13 1
    21   11   17 1
    22   12   15 1
    23   12   17 1
    24   13   25 1
    25   14   16 1
    26   14   24 1
    27   15   25 1
    28   16   18 1
    29   17   19 1
    30   20   21 1
    31   20   22 1
    32   21   23 1
    33   22   28 1
    34   23   29 1
    35   29   35 1
    36   32   35 2
    37   33   35 2
    38    1   36 1
    39    2   37 1
    40    3   38 1
    41   10   39 1
    42   10   40 1
    43   11   41 1
    44   11   42 1
    45   12   43 1
    46   12   44 1
    47   13   45 1
    48   13   46 1
    49   14   47 1
    50   14   48 1
    51   15   49 1
    52   16   50 1
    53   17   51 1
    54   18   52 1
    55   18   53 1
    56   18   54 1
    57   19   55 1
    58   19   56 1
    59   19   57 1
    60   20   58 1
    61   20   59 1
    62   21   60 1
    63   21   61 1
    64   22   62 1
    65   22   63 1
    66   23   64 1
    67   24   65 1
    68   26   66 1
    69   26   67 1
    70   27   68 1
    71   27   69 1
    72   28   70 1
    73   29   71 1
    74   34   72 1
@<TRIPOS>MOLECULE
1dwc_ligand_288
   72    74     0     0     0
SMALL
USER_CHARGES

mmff94s_NoEstat = 81.13
@<TRIPOS>ATOM
      1 C1         -1.9965   -5.9212    5.9958 C.ar      1 <0>        -0.1945
      2 C2         -2.1862   -5.2163    7.1826 C.ar      1 <0>        -0.0294
      3 C3         -2.1655   -5.2788    4.7728 C.ar      1 <0>        -0.0143
      4 C4         -2.5430   -3.8606    7.1524 C.ar      1 <0>        -0.1552
      5 C5         -2.7443   -3.2106    5.9185 C.ar      1 <0>         0.3076
      6 C6         -2.5336   -3.9330    4.7351 C.ar      1 <0>        -0.4908
      7 C7          2.0323   -3.0842    5.9821 C.2       1 <0>         0.5994
      8 C8          0.8654   -1.4427    3.2413 C.2       1 <0>         0.6462
      9 C9          4.0141   -6.1014   -0.2251 C.cat     1 <0>         0.6305
     10 C10        -2.7517   -3.1143    8.4484 C.3       1 <0>        -0.0319
     11 C11         3.0911    0.4998    5.4298 C.3       1 <0>        -0.0918
     12 C12         1.5534   -0.8369    6.8842 C.3       1 <0>        -0.0841
     13 C13         2.8818   -0.5022    4.3015 C.3       1 <0>         0.0870
     14 C14        -3.4952   -1.1625    7.0613 C.3       1 <0>         0.2023
     15 C15         1.2754   -1.7924    5.7207 C.3       1 <0>         0.0778
     16 C16        -2.6278   -1.5957    8.2477 C.3       1 <0>        -0.0746
     17 C17         2.9339   -0.1724    6.7962 C.3       1 <0>        -0.0681
     18 C18        -3.0221   -0.8459    9.5173 C.3       1 <0>        -0.0944
     19 C19         3.1216    0.8403    7.9242 C.3       1 <0>        -0.0918
     20 C20         1.7689   -4.0083    2.0091 C.3       1 <0>        -0.1192
     21 C21         0.3004   -3.5693    2.0376 C.3       1 <0>        -0.0916
     22 C22         2.0958   -4.8429    0.7769 C.3       1 <0>         0.1883
     23 C23        -0.0078   -2.6730    3.2260 C.3       1 <0>         0.1952
     24 N1         -3.0973   -1.8681    5.8578 N.pl3     1 <0>        -0.7670
     25 N2          1.5999   -1.2067    4.4091 N.am      1 <0>        -0.4509
     26 N3          5.3470   -6.4988   -0.2068 N.pl3     1 <0>        -0.8477
     27 N4          3.1913   -6.5359   -1.2586 N.pl3     1 <0>        -0.8633
     28 N5          3.4859   -5.2755    0.7729 N.pl3     1 <0>        -0.7419
     29 N6         -1.3760   -2.1385    3.1042 N.pl3     1 <0>        -0.8860
     30 O1          2.3575   -3.4961    7.0858 O.2       1 <0>        -0.5199
     31 O2          0.8891   -0.7105    2.2483 O.2       1 <0>        -0.6131
     32 O3         -2.5366   -4.2300    2.1492 O.2       1 <0>        -0.6576
     33 O4         -3.9323   -2.4104    3.1814 O.2       1 <0>        -0.6482
     34 O5          2.3038   -3.7238    4.8184 O.3       1 <0>        -0.6303
     35 S1         -2.7118   -3.1932    3.1483 S.o2      1 <0>         1.5193
     36 H1         -1.7136   -6.9698    6.0253 H         1 <0>         0.1426
     37 H2         -2.0492   -5.7255    8.1337 H         1 <0>         0.1398
     38 H3         -2.0145   -5.8162    3.8419 H         1 <0>         0.1599
     39 H4         -3.7469   -3.3674    8.8354 H         1 <0>         0.0574
     40 H5         -2.0117   -3.4391    9.1901 H         1 <0>         0.0629
     41 H6          4.0885    0.9467    5.3426 H         1 <0>         0.0614
     42 H7          2.3630    1.3153    5.3324 H         1 <0>         0.0593
     43 H8          0.7851   -0.0517    6.8776 H         1 <0>         0.0841
     44 H9          1.4567   -1.3607    7.8437 H         1 <0>         0.0679
     45 H10         2.9560    0.0148    3.3392 H         1 <0>         0.0826
     46 H11         3.6704   -1.2643    4.3172 H         1 <0>         0.0383
     47 H12        -4.5547   -1.3611    7.2657 H         1 <0>         0.0556
     48 H13        -3.3943   -0.0847    6.8920 H         1 <0>         0.0415
     49 H14         0.2160   -2.0663    5.7460 H         1 <0>         0.0851
     50 H15        -1.5799   -1.3538    8.0242 H         1 <0>         0.0639
     51 H16         3.7104   -0.9392    6.9078 H         1 <0>         0.0584
     52 H17        -2.7058    0.1999    9.4599 H         1 <0>         0.0401
     53 H18        -4.1069   -0.8706    9.6572 H         1 <0>         0.0440
     54 H19        -2.5511   -1.3005   10.3940 H         1 <0>         0.0459
     55 H20         2.2527    0.8404    8.5891 H         1 <0>         0.0456
     56 H21         4.0086    0.5961    8.5164 H         1 <0>         0.0366
     57 H22         3.2450    1.8489    7.5186 H         1 <0>         0.0474
     58 H23         2.4156   -3.1229    2.0318 H         1 <0>         0.0800
     59 H24         1.9949   -4.6013    2.9028 H         1 <0>         0.0681
     60 H25        -0.3448   -4.4577    2.0448 H         1 <0>         0.0740
     61 H26         0.0666   -3.0218    1.1158 H         1 <0>         0.0631
     62 H27         1.9087   -4.2801   -0.1431 H         1 <0>         0.0970
     63 H28         1.4704   -5.7411    0.7573 H         1 <0>         0.0725
     64 H29         0.1003   -3.1895    4.1787 H         1 <0>         0.0839
     65 H30        -3.3042   -1.4652    4.9522 H         1 <0>         0.4531
     66 H31         5.9857   -6.2045    0.5272 H         1 <0>         0.4798
     67 H32         5.7233   -7.0992   -0.9370 H         1 <0>         0.4881
     68 H33         2.2121   -6.2643   -1.3027 H         1 <0>         0.4801
     69 H34         3.5471   -7.1379   -1.9973 H         1 <0>         0.4806
     70 H35         4.1145   -4.9729    1.5185 H         1 <0>         0.4689
     71 H36        -1.5021   -1.1633    3.3956 H         1 <0>         0.4505
     72 H37         2.7944   -4.5604    4.9659 H         1 <0>         0.4443
@<TRIPOS>BOND
     1    1    2 ar
     2    1    3 ar
     3    2    4 ar
     4    3    6 ar
     5    4    5 ar
     6    4   10 1
     7    5    6 ar
     8    5   24 1
     9    6   35 1
    10    7   15 1
    11    7   30 2
    12    7   34 1
    13    8   23 1
    14    8   25 am
    15    8   31 2
    16    9   26 1
    17    9   27 1
    18    9   28 1
    19   10   16 1
    20   11   13 1
    21   11   17 1
    22   12   15 1
    23   12   17 1
    24   13   25 1
    25   14   16 1
    26   14   24 1
    27   15   25 1
    28   16   18 1
    29   17   19 1
    30   20   21 1
    31   20   22 1
    32   21   23 1
    33   22   28 1
    34   23   29 1
    35   29   35 1
    36   32   35 2
    37   33   35 2
    38    1   36 1
    39    2   37 1
    40    3   38 1
    41   10   39 1
    42   10   40 1
    43   11   41 1
    44   11   42 1
    45   12   43 1
    46   12   44 1
    47   13   45 1
    48   13   46 1
    49   14   47 1
    50   14   48 1
    51   15   49 1
    52   16   50 1
    53   17   51 1
    54   18   52 1
    55   18   53 1
    56   18   54 1
    57   19   55 1
    58   19   56 1
    59   19   57 1
    60   20   58 1
    61   20   59 1
    62   21   60 1
    63   21   61 1
    64   22   62 1
    65   22   63 1
    66   23   64 1
    67   24   65 1
    68   26   66 1
    69   26   67 1
    70   27   68 1
    71   27   69 1
    72   28   70 1
    73   29   71 1
    74   34   72 1
@<TRIPOS>MOLECULE
1dwc_ligand_289
   72    74     0     0     0
SMALL
USER_CHARGES

mmff94s_NoEstat = 81.15
@<TRIPOS>ATOM
      1 C1          6.5406    1.4245   -2.2182 C.ar      1 <0>        -0.1945
      2 C2          6.6985    1.8302   -0.8947 C.ar      1 <0>        -0.0294
      3 C3          6.3835    0.0742   -2.5155 C.ar      1 <0>        -0.0143
      4 C4          6.7040    0.8848    0.1410 C.ar      1 <0>        -0.1552
      5 C5          6.5167   -0.4809   -0.1490 C.ar      1 <0>         0.3076
      6 C6          6.3751   -0.8712   -1.4886 C.ar      1 <0>        -0.4908
      7 C7          2.8752    1.3115    1.1058 C.2       1 <0>         0.5994
      8 C8          2.9466   -1.3973   -0.6457 C.2       1 <0>         0.6462
      9 C9         -0.8076   -5.5695   -2.5894 C.cat     1 <0>         0.6305
     10 C10         6.8681    1.3449    1.5697 C.3       1 <0>        -0.0319
     11 C11         2.3641    2.0271   -2.0925 C.3       1 <0>        -0.0918
     12 C12         0.7649    1.6065   -0.1433 C.3       1 <0>        -0.0841
     13 C13         2.2856    0.5067   -2.1800 C.3       1 <0>         0.0870
     14 C14         6.4788   -1.0425    2.2496 C.3       1 <0>         0.2023
     15 C15         1.8211    0.5897    0.2827 C.3       1 <0>         0.0778
     16 C16         7.3211    0.2120    2.5051 C.3       1 <0>        -0.0746
     17 C17         1.2898    2.6259   -1.1701 C.3       1 <0>        -0.0681
     18 C18         8.8220   -0.0713    2.3751 C.3       1 <0>        -0.0944
     19 C19         0.1276    3.2108   -1.9746 C.3       1 <0>        -0.0918
     20 C20         1.1084   -2.3549   -2.7950 C.3       1 <0>        -0.1192
     21 C21         2.4114   -3.0756   -2.4306 C.3       1 <0>        -0.0916
     22 C22         0.0368   -3.3189   -3.2890 C.3       1 <0>         0.1883
     23 C23         3.4544   -2.1251   -1.8653 C.3       1 <0>         0.1952
     24 N1          6.5251   -1.4407    0.8554 N.pl3     1 <0>        -0.7670
     25 N2          2.3949   -0.1309   -0.8598 N.am      1 <0>        -0.4509
     26 N3         -1.1357   -6.4884   -1.5979 N.pl3     1 <0>        -0.8477
     27 N4         -0.9727   -5.9242   -3.9239 N.pl3     1 <0>        -0.8633
     28 N5         -0.3162   -4.2987   -2.2718 N.pl3     1 <0>        -0.7419
     29 N6          4.6097   -2.8934   -1.3678 N.pl3     1 <0>        -0.8860
     30 O1          3.9082    1.7887    0.6602 O.2       1 <0>        -0.5199
     31 O2          3.0377   -1.9312    0.4627 O.2       1 <0>        -0.6131
     32 O3          6.1698   -2.6265   -3.3996 O.2       1 <0>        -0.6576
     33 O4          7.1388   -3.3235   -1.1861 O.2       1 <0>        -0.6482
     34 O5          2.5161    1.3542    2.4121 O.3       1 <0>        -0.6303
     35 S1          6.1736   -2.5573   -1.9508 S.o2      1 <0>         1.5193
     36 H1          6.5435    2.1609   -3.0173 H         1 <0>         0.1426
     37 H2          6.8235    2.8872   -0.6719 H         1 <0>         0.1398
     38 H3          6.2656   -0.2543   -3.5434 H         1 <0>         0.1599
     39 H4          7.5861    2.1725    1.6211 H         1 <0>         0.0574
     40 H5          5.8975    1.7275    1.9104 H         1 <0>         0.0629
     41 H6          3.3521    2.2982   -1.6971 H         1 <0>         0.0614
     42 H7          2.3049    2.4652   -3.0956 H         1 <0>         0.0593
     43 H8         -0.0830    1.0592   -0.5778 H         1 <0>         0.0841
     44 H9          0.3696    2.1440    0.7282 H         1 <0>         0.0679
     45 H10         1.3285    0.1928   -2.6129 H         1 <0>         0.0826
     46 H11         3.0787    0.1346   -2.8358 H         1 <0>         0.0383
     47 H12         6.8300   -1.8717    2.8739 H         1 <0>         0.0556
     48 H13         5.4356   -0.8502    2.5290 H         1 <0>         0.0415
     49 H14         1.3638   -0.1412    0.9605 H         1 <0>         0.0851
     50 H15         7.1566    0.5367    3.5400 H         1 <0>         0.0639
     51 H16         1.7477    3.4645   -0.6301 H         1 <0>         0.0584
     52 H17         9.2504    0.4995    1.5459 H         1 <0>         0.0401
     53 H18         9.3470    0.2082    3.2934 H         1 <0>         0.0440
     54 H19         8.9975   -1.1349    2.1879 H         1 <0>         0.0459
     55 H20         0.4103    4.1714   -2.4154 H         1 <0>         0.0456
     56 H21        -0.1604    2.5322   -2.7831 H         1 <0>         0.0366
     57 H22        -0.7432    3.3698   -1.3317 H         1 <0>         0.0474
     58 H23         0.7341   -1.8112   -1.9193 H         1 <0>         0.0800
     59 H24         1.3022   -1.6154   -3.5806 H         1 <0>         0.0681
     60 H25         2.8001   -3.5947   -3.3165 H         1 <0>         0.0740
     61 H26         2.2014   -3.8505   -1.6824 H         1 <0>         0.0631
     62 H27         0.3698   -3.8564   -4.1826 H         1 <0>         0.0970
     63 H28        -0.8729   -2.7667   -3.5456 H         1 <0>         0.0725
     64 H29         3.7902   -1.3903   -2.5956 H         1 <0>         0.0839
     65 H30         6.3115   -2.3985    0.6051 H         1 <0>         0.4531
     66 H31        -1.0297   -6.2739   -0.6100 H         1 <0>         0.4798
     67 H32        -1.4919   -7.4107   -1.8376 H         1 <0>         0.4881
     68 H33        -0.7427   -5.2767   -4.6738 H         1 <0>         0.4801
     69 H34        -1.3290   -6.8404   -4.1850 H         1 <0>         0.4806
     70 H35        -0.2060   -4.0674   -1.2834 H         1 <0>         0.4689
     71 H36         4.5044   -3.3037   -0.4338 H         1 <0>         0.4505
     72 H37         3.1856    1.8153    2.9613 H         1 <0>         0.4443
@<TRIPOS>BOND
     1    1    2 ar
     2    1    3 ar
     3    2    4 ar
     4    3    6 ar
     5    4    5 ar
     6    4   10 1
     7    5    6 ar
     8    5   24 1
     9    6   35 1
    10    7   15 1
    11    7   30 2
    12    7   34 1
    13    8   23 1
    14    8   25 am
    15    8   31 2
    16    9   26 1
    17    9   27 1
    18    9   28 1
    19   10   16 1
    20   11   13 1
    21   11   17 1
    22   12   15 1
    23   12   17 1
    24   13   25 1
    25   14   16 1
    26   14   24 1
    27   15   25 1
    28   16   18 1
    29   17   19 1
    30   20   21 1
    31   20   22 1
    32   21   23 1
    33   22   28 1
    34   23   29 1
    35   29   35 1
    36   32   35 2
    37   33   35 2
    38    1   36 1
    39    2   37 1
    40    3   38 1
    41   10   39 1
    42   10   40 1
    43   11   41 1
    44   11   42 1
    45   12   43 1
    46   12   44 1
    47   13   45 1
    48   13   46 1
    49   14   47 1
    50   14   48 1
    51   15   49 1
    52   16   50 1
    53   17   51 1
    54   18   52 1
    55   18   53 1
    56   18   54 1
    57   19   55 1
    58   19   56 1
    59   19   57 1
    60   20   58 1
    61   20   59 1
    62   21   60 1
    63   21   61 1
    64   22   62 1
    65   22   63 1
    66   23   64 1
    67   24   65 1
    68   26   66 1
    69   26   67 1
    70   27   68 1
    71   27   69 1
    72   28   70 1
    73   29   71 1
    74   34   72 1
@<TRIPOS>MOLECULE
1dwc_ligand_290
   72    74     0     0     0
SMALL
USER_CHARGES

mmff94s_NoEstat = 81.20
@<TRIPOS>ATOM
      1 C1          3.8129   -2.1800    0.5043 C.ar      1 <0>        -0.1945
      2 C2          4.6808   -1.4544    1.3175 C.ar      1 <0>        -0.0294
      3 C3          2.9825   -3.1461    1.0644 C.ar      1 <0>        -0.0143
      4 C4          4.7260   -1.6944    2.6985 C.ar      1 <0>        -0.1552
      5 C5          3.8683   -2.6504    3.2771 C.ar      1 <0>         0.3076
      6 C6          3.0129   -3.3814    2.4399 C.ar      1 <0>        -0.4908
      7 C7         -1.2359   -0.6984    0.6725 C.2       1 <0>         0.5994
      8 C8          0.8654   -1.4427    3.2413 C.2       1 <0>         0.6462
      9 C9         -5.6874   -4.6342    5.1589 C.cat     1 <0>         0.6305
     10 C10         5.6674   -0.8921    3.5643 C.3       1 <0>        -0.0319
     11 C11         1.8315    1.4466    1.1834 C.3       1 <0>        -0.0918
     12 C12         0.9831   -0.3423   -0.3484 C.3       1 <0>        -0.0841
     13 C13         1.0260    0.8397    2.3251 C.3       1 <0>         0.0870
     14 C14         4.6288   -2.0446    5.5409 C.3       1 <0>         0.2023
     15 C15         0.2462   -1.0009    0.8207 C.3       1 <0>         0.0778
     16 C16         5.9450   -1.5685    4.9167 C.3       1 <0>        -0.0746
     17 C17         1.1635    1.1707   -0.1661 C.3       1 <0>        -0.0681
     18 C18         6.9614   -2.7088    4.7877 C.3       1 <0>        -0.0944
     19 C19         1.9862    1.7609   -1.3098 C.3       1 <0>        -0.0918
     20 C20        -2.2331   -3.6727    3.9110 C.3       1 <0>        -0.1192
     21 C21        -1.3133   -2.4479    3.9716 C.3       1 <0>        -0.0916
     22 C22        -3.5726   -3.4201    4.5920 C.3       1 <0>         0.1883
     23 C23        -0.0078   -2.6730    3.2260 C.3       1 <0>         0.1952
     24 N1          3.8960   -2.9148    4.6407 N.pl3     1 <0>        -0.7670
     25 N2          0.7744   -0.5925    2.1333 N.am      1 <0>        -0.4509
     26 N3         -6.4864   -5.7715    5.1030 N.pl3     1 <0>        -0.8477
     27 N4         -6.1529   -3.5113    5.8344 N.pl3     1 <0>        -0.8633
     28 N5         -4.4280   -4.5974    4.5508 N.pl3     1 <0>        -0.7419
     29 N6          0.7961   -3.6905    3.9267 N.pl3     1 <0>        -0.8860
     30 O1         -1.9090   -0.9539   -0.3149 O.2       1 <0>        -0.5199
     31 O2          1.6103   -1.2468    4.2054 O.2       1 <0>        -0.6131
     32 O3          1.2775   -5.2555    1.9386 O.2       1 <0>        -0.6576
     33 O4          2.7012   -5.4164    4.0053 O.2       1 <0>        -0.6482
     34 O5         -1.7163   -0.0998    1.7897 O.3       1 <0>        -0.6303
     35 S1          1.9328   -4.6215    3.0666 S.o2      1 <0>         1.5193
     36 H1          3.7867   -1.9943   -0.5661 H         1 <0>         0.1426
     37 H2          5.3282   -0.7035    0.8708 H         1 <0>         0.1398
     38 H3          2.3066   -3.7218    0.4399 H         1 <0>         0.1599
     39 H4          6.6144   -0.7219    3.0378 H         1 <0>         0.0574
     40 H5          5.2057    0.0881    3.7395 H         1 <0>         0.0629
     41 H6          1.9320    2.5271    1.3399 H         1 <0>         0.0614
     42 H7          2.8448    1.0248    1.1881 H         1 <0>         0.0593
     43 H8          1.9753   -0.8057   -0.4365 H         1 <0>         0.0841
     44 H9          0.4607   -0.5403   -1.2930 H         1 <0>         0.0679
     45 H10         1.5496    1.0140    3.2709 H         1 <0>         0.0826
     46 H11         0.0484    1.3304    2.4051 H         1 <0>         0.0383
     47 H12         4.8217   -2.5758    6.4796 H         1 <0>         0.0556
     48 H13         4.0016   -1.1785    5.7856 H         1 <0>         0.0415
     49 H14         0.3330   -2.0869    0.7143 H         1 <0>         0.0851
     50 H15         6.3979   -0.8252    5.5842 H         1 <0>         0.0639
     51 H16         0.1795    1.6553   -0.1825 H         1 <0>         0.0584
     52 H17         7.1898   -2.9029    3.7355 H         1 <0>         0.0401
     53 H18         7.8931   -2.4532    5.3012 H         1 <0>         0.0440
     54 H19         6.5655   -3.6282    5.2294 H         1 <0>         0.0459
     55 H20         1.9407    1.1129   -2.1902 H         1 <0>         0.0456
     56 H21         1.6048    2.7479   -1.5883 H         1 <0>         0.0366
     57 H22         3.0342    1.8673   -1.0143 H         1 <0>         0.0474
     58 H23        -2.4032   -3.9506    2.8639 H         1 <0>         0.0800
     59 H24        -1.7473   -4.5245    4.4007 H         1 <0>         0.0681
     60 H25        -1.1204   -2.1894    5.0211 H         1 <0>         0.0740
     61 H26        -1.8263   -1.5854    3.5275 H         1 <0>         0.0631
     62 H27        -4.1071   -2.5906    4.1183 H         1 <0>         0.0970
     63 H28        -3.4143   -3.1637    5.6444 H         1 <0>         0.0725
     64 H29        -0.1638   -2.9774    2.1921 H         1 <0>         0.0839
     65 H30         3.2089   -3.5553    5.0190 H         1 <0>         0.4531
     66 H31        -6.1885   -6.6144    4.6191 H         1 <0>         0.4798
     67 H32        -7.4014   -5.7896    5.5474 H         1 <0>         0.4881
     68 H33        -5.5947   -2.6632    5.8946 H         1 <0>         0.4801
     69 H34        -7.0638   -3.5091    6.2870 H         1 <0>         0.4806
     70 H35        -4.1136   -5.4373    4.0624 H         1 <0>         0.4689
     71 H36         0.9382   -3.5340    4.9302 H         1 <0>         0.4505
     72 H37        -2.6725    0.1056    1.7130 H         1 <0>         0.4443
@<TRIPOS>BOND
     1    1    2 ar
     2    1    3 ar
     3    2    4 ar
     4    3    6 ar
     5    4    5 ar
     6    4   10 1
     7    5    6 ar
     8    5   24 1
     9    6   35 1
    10    7   15 1
    11    7   30 2
    12    7   34 1
    13    8   23 1
    14    8   25 am
    15    8   31 2
    16    9   26 1
    17    9   27 1
    18    9   28 1
    19   10   16 1
    20   11   13 1
    21   11   17 1
    22   12   15 1
    23   12   17 1
    24   13   25 1
    25   14   16 1
    26   14   24 1
    27   15   25 1
    28   16   18 1
    29   17   19 1
    30   20   21 1
    31   20   22 1
    32   21   23 1
    33   22   28 1
    34   23   29 1
    35   29   35 1
    36   32   35 2
    37   33   35 2
    38    1   36 1
    39    2   37 1
    40    3   38 1
    41   10   39 1
    42   10   40 1
    43   11   41 1
    44   11   42 1
    45   12   43 1
    46   12   44 1
    47   13   45 1
    48   13   46 1
    49   14   47 1
    50   14   48 1
    51   15   49 1
    52   16   50 1
    53   17   51 1
    54   18   52 1
    55   18   53 1
    56   18   54 1
    57   19   55 1
    58   19   56 1
    59   19   57 1
    60   20   58 1
    61   20   59 1
    62   21   60 1
    63   21   61 1
    64   22   62 1
    65   22   63 1
    66   23   64 1
    67   24   65 1
    68   26   66 1
    69   26   67 1
    70   27   68 1
    71   27   69 1
    72   28   70 1
    73   29   71 1
    74   34   72 1
@<TRIPOS>MOLECULE
1dwc_ligand_291
   72    74     0     0     0
SMALL
USER_CHARGES

mmff94s_NoEstat = 81.22
@<TRIPOS>ATOM
      1 C1          1.9247   -5.6076   -5.8968 C.ar      1 <0>        -0.1945
      2 C2          2.8785   -6.5393   -5.4922 C.ar      1 <0>        -0.0294
      3 C3          1.4180   -4.6909   -4.9805 C.ar      1 <0>        -0.0143
      4 C4          3.3347   -6.5563   -4.1664 C.ar      1 <0>        -0.1552
      5 C5          2.8054   -5.6505   -3.2257 C.ar      1 <0>         0.3076
      6 C6          1.8576   -4.7107   -3.6559 C.ar      1 <0>        -0.4908
      7 C7          2.4038   -0.4910    2.4030 C.2       1 <0>         0.5994
      8 C8          2.9466   -1.3973   -0.6457 C.2       1 <0>         0.6462
      9 C9          9.0792    0.7389   -1.8541 C.cat     1 <0>         0.6305
     10 C10         4.3633   -7.5778   -3.7437 C.3       1 <0>        -0.0319
     11 C11         3.9178   -3.4419    2.3602 C.3       1 <0>        -0.0918
     12 C12         4.8012   -1.0545    2.5913 C.3       1 <0>        -0.0841
     13 C13         4.0430   -3.0960    0.8803 C.3       1 <0>         0.0870
     14 C14         4.0746   -6.7191   -1.4059 C.3       1 <0>         0.2023
     15 C15         3.6790   -0.7248    1.6100 C.3       1 <0>         0.0778
     16 C16         5.0972   -7.1398   -2.4665 C.3       1 <0>        -0.0746
     17 C17         4.6242   -2.4243    3.2705 C.3       1 <0>        -0.0681
     18 C18         5.9974   -8.2574   -1.9467 C.3       1 <0>        -0.0944
     19 C19         5.9763   -2.9527    3.7531 C.3       1 <0>        -0.0918
     20 C20         5.7415   -1.0578   -1.6401 C.3       1 <0>        -0.1192
     21 C21         4.5564   -1.3488   -2.5679 C.3       1 <0>        -0.0916
     22 C22         6.8115   -0.2136   -2.3213 C.3       1 <0>         0.1883
     23 C23         3.4544   -2.1251   -1.8653 C.3       1 <0>         0.1952
     24 N1          3.2389   -5.6437   -1.9056 N.pl3     1 <0>        -0.7670
     25 N2          3.5192   -1.7560    0.5781 N.am      1 <0>        -0.4509
     26 N3         10.1464    0.9650   -0.9911 N.pl3     1 <0>        -0.8477
     27 N4          9.1456    1.2237   -3.1558 N.pl3     1 <0>        -0.8633
     28 N5          7.9432    0.0352   -1.4399 N.pl3     1 <0>        -0.7419
     29 N6          2.2741   -2.2179   -2.7432 N.pl3     1 <0>        -0.8860
     30 O1          2.2729    0.3351    3.2940 O.2       1 <0>        -0.5199
     31 O2          2.0685   -0.5400   -0.7710 O.2       1 <0>        -0.6131
     32 O3         -0.1165   -3.1121   -3.0880 O.2       1 <0>        -0.6576
     33 O4          1.2896   -4.0436   -1.2226 O.2       1 <0>        -0.6482
     34 O5          1.4223   -1.3294    1.9894 O.3       1 <0>        -0.6303
     35 S1          1.1775   -3.5081   -2.5659 S.o2      1 <0>         1.5193
     36 H1          1.5799   -5.5947   -6.9271 H         1 <0>         0.1426
     37 H2          3.2711   -7.2499   -6.2157 H         1 <0>         0.1398
     38 H3          0.6792   -3.9566   -5.2858 H         1 <0>         0.1599
     39 H4          3.8515   -8.5347   -3.5798 H         1 <0>         0.0574
     40 H5          5.0968   -7.7238   -4.5461 H         1 <0>         0.0629
     41 H6          2.8510   -3.4591    2.6203 H         1 <0>         0.0614
     42 H7          4.2939   -4.4553    2.5428 H         1 <0>         0.0593
     43 H8          5.7524   -1.0436    2.0413 H         1 <0>         0.0841
     44 H9          4.8832   -0.2779    3.3625 H         1 <0>         0.0679
     45 H10         5.0934   -3.1114    0.5668 H         1 <0>         0.0826
     46 H11         3.5122   -3.8428    0.2819 H         1 <0>         0.0383
     47 H12         3.4420   -7.5692   -1.1218 H         1 <0>         0.0556
     48 H13         4.5874   -6.3794   -0.4991 H         1 <0>         0.0415
     49 H14         3.9015    0.2290    1.1168 H         1 <0>         0.0851
     50 H15         5.7334   -6.2764   -2.7038 H         1 <0>         0.0639
     51 H16         4.0032   -2.2947    4.1661 H         1 <0>         0.0584
     52 H17         6.6935   -7.8722   -1.1957 H         1 <0>         0.0401
     53 H18         5.3996   -9.0505   -1.4878 H         1 <0>         0.0440
     54 H19         6.5793   -8.6936   -2.7641 H         1 <0>         0.0459
     55 H20         5.8782   -3.4157    4.7396 H         1 <0>         0.0456
     56 H21         6.3665   -3.7022    3.0580 H         1 <0>         0.0366
     57 H22         6.7034   -2.1384    3.8257 H         1 <0>         0.0474
     58 H23         5.3842   -0.5386   -0.7426 H         1 <0>         0.0800
     59 H24         6.1956   -2.0004   -1.3135 H         1 <0>         0.0681
     60 H25         4.9119   -1.8947   -3.4517 H         1 <0>         0.0740
     61 H26         4.1396   -0.4017   -2.9334 H         1 <0>         0.0631
     62 H27         6.4083    0.7518   -2.6432 H         1 <0>         0.0970
     63 H28         7.1906   -0.7341   -3.2066 H         1 <0>         0.0725
     64 H29         3.7703   -3.1244   -1.5692 H         1 <0>         0.0839
     65 H30         2.7759   -5.0262   -1.2500 H         1 <0>         0.4531
     66 H31        10.1413    0.6313   -0.0309 H         1 <0>         0.4798
     67 H32        10.9686    1.4783   -1.3002 H         1 <0>         0.4881
     68 H33         8.3832    1.0763   -3.8128 H         1 <0>         0.4801
     69 H34         9.9591    1.7377   -3.4855 H         1 <0>         0.4806
     70 H35         7.9238   -0.3084   -0.4785 H         1 <0>         0.4689
     71 H36         1.9407   -1.3323   -3.1385 H         1 <0>         0.4505
     72 H37         0.5902   -1.1952    2.4913 H         1 <0>         0.4443
@<TRIPOS>BOND
     1    1    2 ar
     2    1    3 ar
     3    2    4 ar
     4    3    6 ar
     5    4    5 ar
     6    4   10 1
     7    5    6 ar
     8    5   24 1
     9    6   35 1
    10    7   15 1
    11    7   30 2
    12    7   34 1
    13    8   23 1
    14    8   25 am
    15    8   31 2
    16    9   26 1
    17    9   27 1
    18    9   28 1
    19   10   16 1
    20   11   13 1
    21   11   17 1
    22   12   15 1
    23   12   17 1
    24   13   25 1
    25   14   16 1
    26   14   24 1
    27   15   25 1
    28   16   18 1
    29   17   19 1
    30   20   21 1
    31   20   22 1
    32   21   23 1
    33   22   28 1
    34   23   29 1
    35   29   35 1
    36   32   35 2
    37   33   35 2
    38    1   36 1
    39    2   37 1
    40    3   38 1
    41   10   39 1
    42   10   40 1
    43   11   41 1
    44   11   42 1
    45   12   43 1
    46   12   44 1
    47   13   45 1
    48   13   46 1
    49   14   47 1
    50   14   48 1
    51   15   49 1
    52   16   50 1
    53   17   51 1
    54   18   52 1
    55   18   53 1
    56   18   54 1
    57   19   55 1
    58   19   56 1
    59   19   57 1
    60   20   58 1
    61   20   59 1
    62   21   60 1
    63   21   61 1
    64   22   62 1
    65   22   63 1
    66   23   64 1
    67   24   65 1
    68   26   66 1
    69   26   67 1
    70   27   68 1
    71   27   69 1
    72   28   70 1
    73   29   71 1
    74   34   72 1
@<TRIPOS>MOLECULE
1dwc_ligand_292
   72    74     0     0     0
SMALL
USER_CHARGES

mmff94s_NoEstat = 81.28
@<TRIPOS>ATOM
      1 C1          3.2154   -6.5240   -1.2843 C.ar      1 <0>        -0.1945
      2 C2          2.0271   -6.9417   -0.6886 C.ar      1 <0>        -0.0294
      3 C3          3.1981   -5.4928   -2.2187 C.ar      1 <0>        -0.0143
      4 C4          0.8124   -6.3257   -1.0224 C.ar      1 <0>        -0.1552
      5 C5          0.7824   -5.3007   -1.9888 C.ar      1 <0>         0.3076
      6 C6          1.9909   -4.8841   -2.5656 C.ar      1 <0>        -0.4908
      7 C7          1.9683   -0.7067    2.3504 C.2       1 <0>         0.5994
      8 C8          2.9466   -1.3973   -0.6457 C.2       1 <0>         0.6462
      9 C9          7.6931   -4.2818   -2.0990 C.cat     1 <0>         0.6305
     10 C10        -0.4668   -6.7962   -0.3725 C.3       1 <0>        -0.0319
     11 C11         2.1854   -3.9944    1.9686 C.3       1 <0>        -0.0918
     12 C12         3.8131   -2.2556    2.8966 C.3       1 <0>        -0.0841
     13 C13         2.8391   -3.5657    0.6593 C.3       1 <0>         0.0870
     14 C14        -1.6766   -5.2108   -1.8920 C.3       1 <0>         0.2023
     15 C15         3.2228   -1.3678    1.8038 C.3       1 <0>         0.0778
     16 C16        -1.5644   -5.7236   -0.4525 C.3       1 <0>        -0.0746
     17 C17         2.9444   -3.4881    3.2059 C.3       1 <0>        -0.0681
     18 C18        -2.9001   -6.2753    0.0382 C.3       1 <0>        -0.0944
     19 C19         3.7998   -4.5942    3.8264 C.3       1 <0>        -0.0918
     20 C20         5.7415   -1.0578   -1.6401 C.3       1 <0>        -0.1192
     21 C21         4.5564   -1.3488   -2.5679 C.3       1 <0>        -0.0916
     22 C22         6.4279   -2.3331   -1.1666 C.3       1 <0>         0.1883
     23 C23         3.4544   -2.1251   -1.8653 C.3       1 <0>         0.1952
     24 N1         -0.4061   -4.6718   -2.3389 N.pl3     1 <0>        -0.7670
     25 N2          2.9741   -2.1051    0.5595 N.am      1 <0>        -0.4509
     26 N3          8.1964   -4.9967   -3.1809 N.pl3     1 <0>        -0.8477
     27 N4          7.9172   -4.7548   -0.8106 N.pl3     1 <0>        -0.8633
     28 N5          6.9676   -3.0994   -2.2805 N.pl3     1 <0>        -0.7419
     29 N6          2.2741   -2.2179   -2.7432 N.pl3     1 <0>        -0.8860
     30 O1          1.9215   -0.0131    3.3555 O.2       1 <0>        -0.5199
     31 O2          2.5356   -0.2394   -0.7559 O.2       1 <0>        -0.6131
     32 O3          3.2466   -3.7694   -4.5546 O.2       1 <0>        -0.6576
     33 O4          0.7526   -3.5048   -4.3692 O.2       1 <0>        -0.6482
     34 O5          0.8975   -0.9928    1.5701 O.3       1 <0>        -0.6303
     35 S1          2.0591   -3.5786   -3.7438 S.o2      1 <0>         1.5193
     36 H1          4.1546   -7.0004   -1.0168 H         1 <0>         0.1426
     37 H2          2.0504   -7.7462    0.0426 H         1 <0>         0.1398
     38 H3          4.1183   -5.1550   -2.6846 H         1 <0>         0.1599
     39 H4         -0.7932   -7.7137   -0.8784 H         1 <0>         0.0574
     40 H5         -0.2825   -7.0422    0.6805 H         1 <0>         0.0629
     41 H6          1.1666   -3.5855    1.9944 H         1 <0>         0.0614
     42 H7          2.0785   -5.0851    1.9962 H         1 <0>         0.0593
     43 H8          4.8081   -2.5873    2.5693 H         1 <0>         0.0841
     44 H9          3.9682   -1.6833    3.8202 H         1 <0>         0.0679
     45 H10         3.8460   -3.9906    0.5720 H         1 <0>         0.0826
     46 H11         2.2519   -3.9401   -0.1848 H         1 <0>         0.0383
     47 H12        -1.9859   -6.0193   -2.5661 H         1 <0>         0.0556
     48 H13        -2.4387   -4.4261   -1.9562 H         1 <0>         0.0415
     49 H14         3.9207   -0.5495    1.5893 H         1 <0>         0.0851
     50 H15        -1.2856   -4.8844    0.1991 H         1 <0>         0.0639
     51 H16         2.1980   -3.2111    3.9613 H         1 <0>         0.0584
     52 H17        -3.6114   -5.4623    0.2119 H         1 <0>         0.0401
     53 H18        -3.3299   -6.9569   -0.7020 H         1 <0>         0.0440
     54 H19        -2.7683   -6.8236    0.9758 H         1 <0>         0.0459
     55 H20         3.2622   -5.0822    4.6449 H         1 <0>         0.0456
     56 H21         4.0499   -5.3522    3.0782 H         1 <0>         0.0366
     57 H22         4.7318   -4.1818    4.2242 H         1 <0>         0.0474
     58 H23         6.4686   -0.4251   -2.1633 H         1 <0>         0.0800
     59 H24         5.3954   -0.5006   -0.7619 H         1 <0>         0.0681
     60 H25         4.9119   -1.8947   -3.4517 H         1 <0>         0.0740
     61 H26         4.1396   -0.4017   -2.9334 H         1 <0>         0.0631
     62 H27         5.7338   -2.9738   -0.6133 H         1 <0>         0.0970
     63 H28         7.2615   -2.0842   -0.5022 H         1 <0>         0.0725
     64 H29         3.7703   -3.1244   -1.5692 H         1 <0>         0.0839
     65 H30        -0.3888   -3.9943   -3.0913 H         1 <0>         0.4531
     66 H31         8.0557   -4.6904   -4.1399 H         1 <0>         0.4798
     67 H32         8.7224   -5.8561   -3.0401 H         1 <0>         0.4881
     68 H33         7.5634   -4.2571    0.0028 H         1 <0>         0.4801
     69 H34         8.4421   -5.6108   -0.6478 H         1 <0>         0.4806
     70 H35         6.8195   -2.7774   -3.2381 H         1 <0>         0.4689
     71 H36         1.4502   -1.6870   -2.4414 H         1 <0>         0.4505
     72 H37         0.0762   -0.5760    1.9078 H         1 <0>         0.4443
@<TRIPOS>BOND
     1    1    2 ar
     2    1    3 ar
     3    2    4 ar
     4    3    6 ar
     5    4    5 ar
     6    4   10 1
     7    5    6 ar
     8    5   24 1
     9    6   35 1
    10    7   15 1
    11    7   30 2
    12    7   34 1
    13    8   23 1
    14    8   25 am
    15    8   31 2
    16    9   26 1
    17    9   27 1
    18    9   28 1
    19   10   16 1
    20   11   13 1
    21   11   17 1
    22   12   15 1
    23   12   17 1
    24   13   25 1
    25   14   16 1
    26   14   24 1
    27   15   25 1
    28   16   18 1
    29   17   19 1
    30   20   21 1
    31   20   22 1
    32   21   23 1
    33   22   28 1
    34   23   29 1
    35   29   35 1
    36   32   35 2
    37   33   35 2
    38    1   36 1
    39    2   37 1
    40    3   38 1
    41   10   39 1
    42   10   40 1
    43   11   41 1
    44   11   42 1
    45   12   43 1
    46   12   44 1
    47   13   45 1
    48   13   46 1
    49   14   47 1
    50   14   48 1
    51   15   49 1
    52   16   50 1
    53   17   51 1
    54   18   52 1
    55   18   53 1
    56   18   54 1
    57   19   55 1
    58   19   56 1
    59   19   57 1
    60   20   58 1
    61   20   59 1
    62   21   60 1
    63   21   61 1
    64   22   62 1
    65   22   63 1
    66   23   64 1
    67   24   65 1
    68   26   66 1
    69   26   67 1
    70   27   68 1
    71   27   69 1
    72   28   70 1
    73   29   71 1
    74   34   72 1
@<TRIPOS>MOLECULE
1dwc_ligand_293
   72    74     0     0     0
SMALL
USER_CHARGES

mmff94s_NoEstat = 81.29
@<TRIPOS>ATOM
      1 C1          7.4663   -1.7419   -5.0555 C.ar      1 <0>        -0.1945
      2 C2          7.8189   -3.0367   -5.4300 C.ar      1 <0>        -0.0294
      3 C3          6.9552   -1.5029   -3.7834 C.ar      1 <0>        -0.0143
      4 C4          7.6581   -4.1030   -4.5334 C.ar      1 <0>        -0.1552
      5 C5          7.1684   -3.8650   -3.2343 C.ar      1 <0>         0.3076
      6 C6          6.8044   -2.5574   -2.8813 C.ar      1 <0>        -0.4908
      7 C7          3.7685    1.5685    0.3235 C.2       1 <0>         0.5994
      8 C8          2.9466   -1.3973   -0.6457 C.2       1 <0>         0.6462
      9 C9          0.9095   -6.8556   -3.8853 C.cat     1 <0>         0.6305
     10 C10         8.0535   -5.4978   -4.9550 C.3       1 <0>        -0.0319
     11 C11         1.8611    1.7587   -2.3835 C.3       1 <0>        -0.0918
     12 C12         1.3294    1.8958    0.1130 C.3       1 <0>        -0.0841
     13 C13         1.7075    0.2690   -2.0963 C.3       1 <0>         0.0870
     14 C14         7.5357   -6.2183   -2.6043 C.3       1 <0>         0.2023
     15 C15         2.4335    0.8481    0.2329 C.3       1 <0>         0.0778
     16 C16         7.3986   -6.5839   -4.0862 C.3       1 <0>        -0.0746
     17 C17         1.3508    2.6418   -1.2332 C.3       1 <0>        -0.0681
     18 C18         5.9378   -6.8286   -4.4814 C.3       1 <0>        -0.0944
     19 C19        -0.0342    3.2135   -1.5417 C.3       1 <0>        -0.0918
     20 C20         2.0376   -4.1819   -1.4375 C.3       1 <0>        -0.1192
     21 C21         2.4114   -3.0756   -2.4306 C.3       1 <0>        -0.0916
     22 C22         1.0502   -5.1786   -2.0318 C.3       1 <0>         0.1883
     23 C23         3.4544   -2.1251   -1.8653 C.3       1 <0>         0.1952
     24 N1          6.9914   -4.9024   -2.3274 N.pl3     1 <0>        -0.7670
     25 N2          2.3949   -0.1309   -0.8598 N.am      1 <0>        -0.4509
     26 N3          1.4590   -7.4839   -4.9980 N.pl3     1 <0>        -0.8477
     27 N4         -0.3561   -7.2332   -3.4497 N.pl3     1 <0>        -0.8633
     28 N5          1.6025   -5.8539   -3.1973 N.pl3     1 <0>        -0.7419
     29 N6          4.6097   -2.8934   -1.3678 N.pl3     1 <0>        -0.8860
     30 O1          4.4929    1.8260   -0.6264 O.2       1 <0>        -0.5199
     31 O2          3.0377   -1.9312    0.4627 O.2       1 <0>        -0.6131
     32 O3          6.9529   -2.8526   -0.2994 O.2       1 <0>        -0.6576
     33 O4          5.9925   -0.7285   -1.2427 O.2       1 <0>        -0.6482
     34 O5          4.0536    1.8884    1.6094 O.3       1 <0>        -0.6303
     35 S1          6.1490   -2.1694   -1.2948 S.o2      1 <0>         1.5193
     36 H1          7.5871   -0.9204   -5.7565 H         1 <0>         0.1426
     37 H2          8.2148   -3.2146   -6.4271 H         1 <0>         0.1398
     38 H3          6.6714   -0.4992   -3.4825 H         1 <0>         0.1599
     39 H4          7.7935   -5.6635   -6.0077 H         1 <0>         0.0574
     40 H5          9.1448   -5.5757   -4.8678 H         1 <0>         0.0629
     41 H6          2.9275    1.9711   -2.5379 H         1 <0>         0.0614
     42 H7          1.3587    2.0144   -3.3237 H         1 <0>         0.0593
     43 H8          0.3614    1.3894    0.2306 H         1 <0>         0.0841
     44 H9          1.3961    2.6253    0.9302 H         1 <0>         0.0679
     45 H10         0.6501    0.0044   -1.9791 H         1 <0>         0.0826
     46 H11         2.0979   -0.3101   -2.9388 H         1 <0>         0.0383
     47 H12         7.0247   -6.9593   -1.9795 H         1 <0>         0.0556
     48 H13         8.5943   -6.2318   -2.3170 H         1 <0>         0.0415
     49 H14         2.3194    0.3128    1.1832 H         1 <0>         0.0851
     50 H15         7.9285   -7.5282   -4.2621 H         1 <0>         0.0639
     51 H16         2.0299    3.4998   -1.1486 H         1 <0>         0.0584
     52 H17         5.6097   -6.0886   -5.2174 H         1 <0>         0.0401
     53 H18         5.8194   -7.8248   -4.9181 H         1 <0>         0.0440
     54 H19         5.2856   -6.7563   -3.6060 H         1 <0>         0.0459
     55 H20         0.0409    4.0371   -2.2580 H         1 <0>         0.0456
     56 H21        -0.6818    2.4425   -1.9698 H         1 <0>         0.0366
     57 H22        -0.5055    3.5921   -0.6298 H         1 <0>         0.0474
     58 H23         2.9446   -4.7113   -1.1217 H         1 <0>         0.0800
     59 H24         1.5893   -3.7381   -0.5411 H         1 <0>         0.0681
     60 H25         1.5058   -2.5277   -2.7226 H         1 <0>         0.0740
     61 H26         2.8104   -3.5289   -3.3468 H         1 <0>         0.0631
     62 H27         0.1202   -4.6842   -2.3301 H         1 <0>         0.0970
     63 H28         0.8030   -5.9463   -1.2916 H         1 <0>         0.0725
     64 H29         3.7902   -1.3903   -2.5956 H         1 <0>         0.0839
     65 H30         6.7085   -4.6707   -1.3830 H         1 <0>         0.4531
     66 H31         2.3795   -7.2395   -5.3534 H         1 <0>         0.4798
     67 H32         0.9479   -8.2111   -5.4930 H         1 <0>         0.4881
     68 H33        -0.7876   -6.7945   -2.6399 H         1 <0>         0.4801
     69 H34        -0.8831   -7.9592   -3.9292 H         1 <0>         0.4806
     70 H35         2.5295   -5.5984   -3.5409 H         1 <0>         0.4689
     71 H36         4.3912   -3.6637   -0.7270 H         1 <0>         0.4505
     72 H37         4.9138    2.3532    1.6893 H         1 <0>         0.4443
@<TRIPOS>BOND
     1    1    2 ar
     2    1    3 ar
     3    2    4 ar
     4    3    6 ar
     5    4    5 ar
     6    4   10 1
     7    5    6 ar
     8    5   24 1
     9    6   35 1
    10    7   15 1
    11    7   30 2
    12    7   34 1
    13    8   23 1
    14    8   25 am
    15    8   31 2
    16    9   26 1
    17    9   27 1
    18    9   28 1
    19   10   16 1
    20   11   13 1
    21   11   17 1
    22   12   15 1
    23   12   17 1
    24   13   25 1
    25   14   16 1
    26   14   24 1
    27   15   25 1
    28   16   18 1
    29   17   19 1
    30   20   21 1
    31   20   22 1
    32   21   23 1
    33   22   28 1
    34   23   29 1
    35   29   35 1
    36   32   35 2
    37   33   35 2
    38    1   36 1
    39    2   37 1
    40    3   38 1
    41   10   39 1
    42   10   40 1
    43   11   41 1
    44   11   42 1
    45   12   43 1
    46   12   44 1
    47   13   45 1
    48   13   46 1
    49   14   47 1
    50   14   48 1
    51   15   49 1
    52   16   50 1
    53   17   51 1
    54   18   52 1
    55   18   53 1
    56   18   54 1
    57   19   55 1
    58   19   56 1
    59   19   57 1
    60   20   58 1
    61   20   59 1
    62   21   60 1
    63   21   61 1
    64   22   62 1
    65   22   63 1
    66   23   64 1
    67   24   65 1
    68   26   66 1
    69   26   67 1
    70   27   68 1
    71   27   69 1
    72   28   70 1
    73   29   71 1
    74   34   72 1
@<TRIPOS>MOLECULE
1dwc_ligand_294
   72    74     0     0     0
SMALL
USER_CHARGES

mmff94s_NoEstat = 81.32
@<TRIPOS>ATOM
      1 C1          2.7263   -1.9806   -7.3580 C.ar      1 <0>        -0.1945
      2 C2          4.0846   -2.2053   -7.5721 C.ar      1 <0>        -0.0294
      3 C3          2.1292   -2.4129   -6.1776 C.ar      1 <0>        -0.0143
      4 C4          4.8559   -2.8617   -6.6023 C.ar      1 <0>        -0.1552
      5 C5          4.2528   -3.3281   -5.4172 C.ar      1 <0>         0.3076
      6 C6          2.8878   -3.0788   -5.2136 C.ar      1 <0>        -0.4908
      7 C7          0.5484   -0.8946    1.4535 C.2       1 <0>         0.5994
      8 C8          2.9466   -1.3973   -0.6457 C.2       1 <0>         0.6462
      9 C9          8.2869   -3.0539    0.3474 C.cat     1 <0>         0.6305
     10 C10         6.3250   -3.1031   -6.8543 C.3       1 <0>        -0.0319
     11 C11         1.0071   -4.1523    1.0299 C.3       1 <0>        -0.0918
     12 C12         1.8830   -2.5004    2.7729 C.3       1 <0>        -0.0841
     13 C13         2.2320   -3.6460    0.2757 C.3       1 <0>         0.0870
     14 C14         6.3518   -4.4057   -4.7121 C.3       1 <0>         0.2023
     15 C15         1.9200   -1.5343    1.5913 C.3       1 <0>         0.0778
     16 C16         7.0866   -3.3480   -5.5422 C.3       1 <0>        -0.0746
     17 C17         1.0079   -3.7392    2.5107 C.3       1 <0>        -0.0681
     18 C18         8.5259   -3.7726   -5.8205 C.3       1 <0>        -0.0944
     19 C19         1.4463   -4.8953    3.4115 C.3       1 <0>        -0.0918
     20 C20         5.7415   -1.0578   -1.6401 C.3       1 <0>        -0.1192
     21 C21         4.5564   -1.3488   -2.5679 C.3       1 <0>        -0.0916
     22 C22         6.4279   -2.3331   -1.1666 C.3       1 <0>         0.1883
     23 C23         3.4544   -2.1251   -1.8653 C.3       1 <0>         0.1952
     24 N1          4.9920   -3.9808   -4.4384 N.pl3     1 <0>        -0.7670
     25 N2          2.3654   -2.1840    0.3531 N.am      1 <0>        -0.4509
     26 N3          9.3421   -2.7528    1.2022 N.pl3     1 <0>        -0.8477
     27 N4          7.9744   -4.3862    0.0994 N.pl3     1 <0>        -0.8633
     28 N5          7.5354   -2.0461   -0.2663 N.pl3     1 <0>        -0.7419
     29 N6          2.2741   -2.2179   -2.7432 N.pl3     1 <0>        -0.8860
     30 O1         -0.0257   -0.2688    2.3322 O.2       1 <0>        -0.5199
     31 O2          3.0580   -0.1705   -0.5795 O.2       1 <0>        -0.6131
     32 O3          0.6499   -3.7277   -4.0534 O.2       1 <0>        -0.6576
     33 O4          2.8074   -4.6931   -3.1946 O.2       1 <0>        -0.6482
     34 O5          0.0400   -1.1141    0.2163 O.3       1 <0>        -0.6303
     35 S1          2.0591   -3.5786   -3.7438 S.o2      1 <0>         1.5193
     36 H1          2.1351   -1.4656   -8.1102 H         1 <0>         0.1426
     37 H2          4.5435   -1.8614   -8.4961 H         1 <0>         0.1398
     38 H3          1.0733   -2.2381   -5.9973 H         1 <0>         0.1599
     39 H4          6.4225   -3.9709   -7.5189 H         1 <0>         0.0574
     40 H5          6.7634   -2.2381   -7.3669 H         1 <0>         0.0629
     41 H6          0.1116   -3.7326    0.5525 H         1 <0>         0.0614
     42 H7          0.9264   -5.2409    0.9288 H         1 <0>         0.0593
     43 H8          2.9117   -2.8226    2.9853 H         1 <0>         0.0841
     44 H9          1.5267   -1.9929    3.6785 H         1 <0>         0.0679
     45 H10         3.1493   -4.0774    0.6933 H         1 <0>         0.0826
     46 H11         2.1726   -3.9558   -0.7722 H         1 <0>         0.0383
     47 H12         6.3330   -5.3664   -5.2416 H         1 <0>         0.0556
     48 H13         6.8717   -4.5696   -3.7617 H         1 <0>         0.0415
     49 H14         2.6095   -0.7128    1.8202 H         1 <0>         0.0851
     50 H15         7.1156   -2.4102   -4.9709 H         1 <0>         0.0639
     51 H16        -0.0273   -3.5034    2.7887 H         1 <0>         0.0584
     52 H17         9.1283   -3.7094   -4.9094 H         1 <0>         0.0401
     53 H18         8.5590   -4.8039   -6.1846 H         1 <0>         0.0440
     54 H19         8.9780   -3.1252   -6.5778 H         1 <0>         0.0459
     55 H20         0.5753   -5.4296    3.8024 H         1 <0>         0.0456
     56 H21         2.0638   -5.6051    2.8530 H         1 <0>         0.0366
     57 H22         2.0303   -4.5225    4.2583 H         1 <0>         0.0474
     58 H23         6.4686   -0.4251   -2.1633 H         1 <0>         0.0800
     59 H24         5.3954   -0.5006   -0.7619 H         1 <0>         0.0681
     60 H25         4.9119   -1.8947   -3.4517 H         1 <0>         0.0740
     61 H26         4.1396   -0.4017   -2.9334 H         1 <0>         0.0631
     62 H27         6.8136   -2.9120   -2.0118 H         1 <0>         0.0970
     63 H28         5.7150   -2.9614   -0.6232 H         1 <0>         0.0725
     64 H29         3.7703   -3.1244   -1.5692 H         1 <0>         0.0839
     65 H30         4.5012   -4.3637   -3.6397 H         1 <0>         0.4531
     66 H31         9.6078   -1.7941    1.4112 H         1 <0>         0.4798
     67 H32         9.8840   -3.4919    1.6440 H         1 <0>         0.4881
     68 H33         7.2094   -4.6418   -0.5202 H         1 <0>         0.4801
     69 H34         8.5024   -5.1402    0.5323 H         1 <0>         0.4806
     70 H35         7.7887   -1.0776   -0.0648 H         1 <0>         0.4689
     71 H36         1.4502   -1.6870   -2.4414 H         1 <0>         0.4505
     72 H37        -0.8473   -0.7100    0.1079 H         1 <0>         0.4443
@<TRIPOS>BOND
     1    1    2 ar
     2    1    3 ar
     3    2    4 ar
     4    3    6 ar
     5    4    5 ar
     6    4   10 1
     7    5    6 ar
     8    5   24 1
     9    6   35 1
    10    7   15 1
    11    7   30 2
    12    7   34 1
    13    8   23 1
    14    8   25 am
    15    8   31 2
    16    9   26 1
    17    9   27 1
    18    9   28 1
    19   10   16 1
    20   11   13 1
    21   11   17 1
    22   12   15 1
    23   12   17 1
    24   13   25 1
    25   14   16 1
    26   14   24 1
    27   15   25 1
    28   16   18 1
    29   17   19 1
    30   20   21 1
    31   20   22 1
    32   21   23 1
    33   22   28 1
    34   23   29 1
    35   29   35 1
    36   32   35 2
    37   33   35 2
    38    1   36 1
    39    2   37 1
    40    3   38 1
    41   10   39 1
    42   10   40 1
    43   11   41 1
    44   11   42 1
    45   12   43 1
    46   12   44 1
    47   13   45 1
    48   13   46 1
    49   14   47 1
    50   14   48 1
    51   15   49 1
    52   16   50 1
    53   17   51 1
    54   18   52 1
    55   18   53 1
    56   18   54 1
    57   19   55 1
    58   19   56 1
    59   19   57 1
    60   20   58 1
    61   20   59 1
    62   21   60 1
    63   21   61 1
    64   22   62 1
    65   22   63 1
    66   23   64 1
    67   24   65 1
    68   26   66 1
    69   26   67 1
    70   27   68 1
    71   27   69 1
    72   28   70 1
    73   29   71 1
    74   34   72 1
@<TRIPOS>MOLECULE
1dwc_ligand_295
   72    74     0     0     0
SMALL
USER_CHARGES

mmff94s_NoEstat = 81.32
@<TRIPOS>ATOM
      1 C1          3.8129   -2.1800    0.5043 C.ar      1 <0>        -0.1945
      2 C2          4.6808   -1.4544    1.3175 C.ar      1 <0>        -0.0294
      3 C3          2.9825   -3.1461    1.0644 C.ar      1 <0>        -0.0143
      4 C4          4.7260   -1.6944    2.6985 C.ar      1 <0>        -0.1552
      5 C5          3.8683   -2.6504    3.2771 C.ar      1 <0>         0.3076
      6 C6          3.0129   -3.3814    2.4399 C.ar      1 <0>        -0.4908
      7 C7         -1.4628    0.1636    1.3526 C.2       1 <0>         0.5994
      8 C8          0.8654   -1.4427    3.2413 C.2       1 <0>         0.6462
      9 C9         -4.4066   -3.3472    6.8497 C.cat     1 <0>         0.6305
     10 C10         5.6674   -0.8921    3.5643 C.3       1 <0>        -0.0319
     11 C11         2.1918    0.8805    0.7195 C.3       1 <0>        -0.0918
     12 C12         0.2821   -0.3679   -0.3105 C.3       1 <0>        -0.0841
     13 C13         1.6113    0.6116    2.1020 C.3       1 <0>         0.0870
     14 C14         4.6288   -2.0446    5.5409 C.3       1 <0>         0.2023
     15 C15        -0.2506   -0.7126    1.0828 C.3       1 <0>         0.0778
     16 C16         5.9450   -1.5685    4.9167 C.3       1 <0>        -0.0746
     17 C17         1.0859    0.9390   -0.3376 C.3       1 <0>        -0.0681
     18 C18         6.9614   -2.7088    4.7877 C.3       1 <0>        -0.0944
     19 C19         1.6740    1.1859   -1.7255 C.3       1 <0>        -0.0918
     20 C20        -1.0866   -2.1427    5.4567 C.3       1 <0>        -0.1192
     21 C21        -1.3133   -2.4479    3.9716 C.3       1 <0>        -0.0916
     22 C22        -2.3970   -1.9935    6.2196 C.3       1 <0>         0.1883
     23 C23        -0.0078   -2.6730    3.2260 C.3       1 <0>         0.1952
     24 N1          3.8960   -2.9148    4.6407 N.pl3     1 <0>        -0.7670
     25 N2          0.7744   -0.5925    2.1333 N.am      1 <0>        -0.4509
     26 N3         -5.1439   -4.5252    6.7900 N.pl3     1 <0>        -0.8477
     27 N4         -4.8938   -2.2796    7.5959 N.pl3     1 <0>        -0.8633
     28 N5         -3.1876   -3.2152    6.1760 N.pl3     1 <0>        -0.7419
     29 N6          0.7961   -3.6905    3.9267 N.pl3     1 <0>        -0.8860
     30 O1         -1.4385    1.2323    1.9447 O.2       1 <0>        -0.5199
     31 O2          1.6103   -1.2468    4.2054 O.2       1 <0>        -0.6131
     32 O3          1.2775   -5.2555    1.9386 O.2       1 <0>        -0.6576
     33 O4          2.7012   -5.4164    4.0053 O.2       1 <0>        -0.6482
     34 O5         -2.5854   -0.4037    0.8474 O.3       1 <0>        -0.6303
     35 S1          1.9328   -4.6215    3.0666 S.o2      1 <0>         1.5193
     36 H1          3.7867   -1.9943   -0.5661 H         1 <0>         0.1426
     37 H2          5.3282   -0.7035    0.8708 H         1 <0>         0.1398
     38 H3          2.3066   -3.7218    0.4399 H         1 <0>         0.1599
     39 H4          6.6144   -0.7219    3.0378 H         1 <0>         0.0574
     40 H5          5.2057    0.0881    3.7395 H         1 <0>         0.0629
     41 H6          2.7495    1.8244    0.7335 H         1 <0>         0.0614
     42 H7          2.9066    0.0878    0.4640 H         1 <0>         0.0593
     43 H8          0.9336   -1.1873   -0.6438 H         1 <0>         0.0841
     44 H9         -0.5414   -0.3095   -1.0336 H         1 <0>         0.0679
     45 H10         2.4269    0.5309    2.8282 H         1 <0>         0.0826
     46 H11         0.9807    1.4504    2.4206 H         1 <0>         0.0383
     47 H12         4.8217   -2.5758    6.4796 H         1 <0>         0.0556
     48 H13         4.0016   -1.1785    5.7856 H         1 <0>         0.0415
     49 H14        -0.6325   -1.7382    1.0612 H         1 <0>         0.0851
     50 H15         6.3979   -0.8252    5.5842 H         1 <0>         0.0639
     51 H16         0.4173    1.7778   -0.1080 H         1 <0>         0.0584
     52 H17         7.1898   -2.9029    3.7355 H         1 <0>         0.0401
     53 H18         7.8931   -2.4532    5.3012 H         1 <0>         0.0440
     54 H19         6.5655   -3.6282    5.2294 H         1 <0>         0.0459
     55 H20         1.1081    0.6390   -2.4855 H         1 <0>         0.0456
     56 H21         1.6425    2.2512   -1.9725 H         1 <0>         0.0366
     57 H22         2.7156    0.8534   -1.7662 H         1 <0>         0.0474
     58 H23        -0.4913   -2.9455    5.9081 H         1 <0>         0.0800
     59 H24        -0.5143   -1.2136    5.5600 H         1 <0>         0.0681
     60 H25        -1.8840   -1.6286    3.5148 H         1 <0>         0.0740
     61 H26        -1.9315   -3.3495    3.8758 H         1 <0>         0.0631
     62 H27        -3.0022   -1.1781    5.8107 H         1 <0>         0.0970
     63 H28        -2.1935   -1.7693    7.2716 H         1 <0>         0.0725
     64 H29        -0.1638   -2.9774    2.1921 H         1 <0>         0.0839
     65 H30         3.2089   -3.5553    5.0190 H         1 <0>         0.4531
     66 H31        -4.8283   -5.3304    6.2558 H         1 <0>         0.4798
     67 H32        -6.0298   -4.6126    7.2825 H         1 <0>         0.4881
     68 H33        -4.3804   -1.4040    7.6609 H         1 <0>         0.4801
     69 H34        -5.7763   -2.3468    8.0972 H         1 <0>         0.4806
     70 H35        -2.8559   -4.0162    5.6365 H         1 <0>         0.4689
     71 H36         0.9382   -3.5340    4.9302 H         1 <0>         0.4505
     72 H37        -3.3805    0.1466    1.0133 H         1 <0>         0.4443
@<TRIPOS>BOND
     1    1    2 ar
     2    1    3 ar
     3    2    4 ar
     4    3    6 ar
     5    4    5 ar
     6    4   10 1
     7    5    6 ar
     8    5   24 1
     9    6   35 1
    10    7   15 1
    11    7   30 2
    12    7   34 1
    13    8   23 1
    14    8   25 am
    15    8   31 2
    16    9   26 1
    17    9   27 1
    18    9   28 1
    19   10   16 1
    20   11   13 1
    21   11   17 1
    22   12   15 1
    23   12   17 1
    24   13   25 1
    25   14   16 1
    26   14   24 1
    27   15   25 1
    28   16   18 1
    29   17   19 1
    30   20   21 1
    31   20   22 1
    32   21   23 1
    33   22   28 1
    34   23   29 1
    35   29   35 1
    36   32   35 2
    37   33   35 2
    38    1   36 1
    39    2   37 1
    40    3   38 1
    41   10   39 1
    42   10   40 1
    43   11   41 1
    44   11   42 1
    45   12   43 1
    46   12   44 1
    47   13   45 1
    48   13   46 1
    49   14   47 1
    50   14   48 1
    51   15   49 1
    52   16   50 1
    53   17   51 1
    54   18   52 1
    55   18   53 1
    56   18   54 1
    57   19   55 1
    58   19   56 1
    59   19   57 1
    60   20   58 1
    61   20   59 1
    62   21   60 1
    63   21   61 1
    64   22   62 1
    65   22   63 1
    66   23   64 1
    67   24   65 1
    68   26   66 1
    69   26   67 1
    70   27   68 1
    71   27   69 1
    72   28   70 1
    73   29   71 1
    74   34   72 1
@<TRIPOS>MOLECULE
1dwc_ligand_296
   72    74     0     0     0
SMALL
USER_CHARGES

mmff94s_NoEstat = 81.36
@<TRIPOS>ATOM
      1 C1          0.2729   -5.6236   -0.4407 C.ar      1 <0>        -0.1945
      2 C2         -0.6484   -6.6112   -0.0987 C.ar      1 <0>        -0.0294
      3 C3          1.0504   -5.0282    0.5480 C.ar      1 <0>        -0.0143
      4 C4         -0.8004   -7.0071    1.2380 C.ar      1 <0>        -0.1552
      5 C5          0.0031   -6.4297    2.2408 C.ar      1 <0>         0.3076
      6 C6          0.9136   -5.4263    1.8789 C.ar      1 <0>        -0.4908
      7 C7         -1.1116    1.0220    1.9825 C.2       1 <0>         0.5994
      8 C8          0.8654   -1.4427    3.2413 C.2       1 <0>         0.6462
      9 C9         -3.0269   -4.2491    7.1046 C.cat     1 <0>         0.6305
     10 C10        -1.7983   -8.0848    1.5877 C.3       1 <0>        -0.0319
     11 C11         2.1388    0.2326    0.2266 C.3       1 <0>        -0.0918
     12 C12        -0.3237   -0.1114   -0.0639 C.3       1 <0>        -0.0841
     13 C13         1.9602    0.1751    1.7384 C.3       1 <0>         0.0870
     14 C14        -0.9225   -7.9557    3.9392 C.3       1 <0>         0.2023
     15 C15        -0.4871   -0.2577    1.4512 C.3       1 <0>         0.0778
     16 C16        -2.1834   -8.0707    3.0760 C.3       1 <0>        -0.0746
     17 C17         0.8749    0.7635   -0.4549 C.3       1 <0>        -0.0681
     18 C18        -3.1963   -6.9649    3.3941 C.3       1 <0>        -0.0944
     19 C19         1.0498    0.7979   -1.9719 C.3       1 <0>        -0.0918
     20 C20        -1.0866   -2.1427    5.4567 C.3       1 <0>        -0.1192
     21 C21        -1.3133   -2.4479    3.9716 C.3       1 <0>        -0.0916
     22 C22        -2.3970   -1.9935    6.2196 C.3       1 <0>         0.1883
     23 C23        -0.0078   -2.6730    3.2260 C.3       1 <0>         0.1952
     24 N1         -0.1305   -6.7964    3.5741 N.pl3     1 <0>        -0.7670
     25 N2          0.7744   -0.5925    2.1333 N.am      1 <0>        -0.4509
     26 N3         -3.7970   -5.4059    7.0420 N.pl3     1 <0>        -0.8477
     27 N4         -2.0778   -4.1204    8.1129 N.pl3     1 <0>        -0.8633
     28 N5         -3.1876   -3.2152    6.1760 N.pl3     1 <0>        -0.7419
     29 N6          0.7961   -3.6905    3.9267 N.pl3     1 <0>        -0.8860
     30 O1         -0.4892    1.9717    2.4341 O.2       1 <0>        -0.5199
     31 O2          1.6103   -1.2468    4.2054 O.2       1 <0>        -0.6131
     32 O3          2.4834   -5.6363    3.9445 O.2       1 <0>        -0.6576
     33 O4          2.8151   -3.7334    2.3342 O.2       1 <0>        -0.6482
     34 O5         -2.4629    0.9691    1.8908 O.3       1 <0>        -0.6303
     35 S1          1.9328   -4.6215    3.0666 S.o2      1 <0>         1.5193
     36 H1          0.3819   -5.3163   -1.4773 H         1 <0>         0.1426
     37 H2         -1.2538   -7.0689   -0.8775 H         1 <0>         0.1398
     38 H3          1.7672   -4.2535    0.2943 H         1 <0>         0.1599
     39 H4         -2.7011   -7.9788    0.9739 H         1 <0>         0.0574
     40 H5         -1.3433   -9.0529    1.3421 H         1 <0>         0.0629
     41 H6          2.9950    0.8726   -0.0171 H         1 <0>         0.0614
     42 H7          2.3692   -0.7717   -0.1514 H         1 <0>         0.0593
     43 H8         -0.1827   -1.1122   -0.4945 H         1 <0>         0.0841
     44 H9         -1.2391    0.2955   -0.5121 H         1 <0>         0.0679
     45 H10         2.8610   -0.2490    2.1940 H         1 <0>         0.0826
     46 H11         1.8403    1.1858    2.1470 H         1 <0>         0.0383
     47 H12        -1.1905   -7.8906    4.9997 H         1 <0>         0.0556
     48 H13        -0.3087   -8.8568    3.8183 H         1 <0>         0.0415
     49 H14        -1.2253   -1.0427    1.6435 H         1 <0>         0.0851
     50 H15        -2.6797   -9.0207    3.3097 H         1 <0>         0.0639
     51 H16         0.6944    1.7923   -0.1196 H         1 <0>         0.0584
     52 H17        -3.3457   -6.3186    2.5240 H         1 <0>         0.0401
     53 H18        -4.1623   -7.3968    3.6724 H         1 <0>         0.0440
     54 H19        -2.8427   -6.3474    4.2251 H         1 <0>         0.0459
     55 H20         0.1097    0.5485   -2.4730 H         1 <0>         0.0456
     56 H21         1.3618    1.7937   -2.3005 H         1 <0>         0.0366
     57 H22         1.8100    0.0770   -2.2875 H         1 <0>         0.0474
     58 H23        -0.4913   -2.9455    5.9081 H         1 <0>         0.0800
     59 H24        -0.5143   -1.2136    5.5600 H         1 <0>         0.0681
     60 H25        -1.8840   -1.6286    3.5148 H         1 <0>         0.0740
     61 H26        -1.9315   -3.3495    3.8758 H         1 <0>         0.0631
     62 H27        -3.0022   -1.1781    5.8107 H         1 <0>         0.0970
     63 H28        -2.1935   -1.7693    7.2716 H         1 <0>         0.0725
     64 H29        -0.1638   -2.9774    2.1921 H         1 <0>         0.0839
     65 H30         0.5206   -6.4083    4.2456 H         1 <0>         0.4531
     66 H31        -4.5036   -5.5429    6.3243 H         1 <0>         0.4798
     67 H32        -3.6741   -6.1527    7.7218 H         1 <0>         0.4881
     68 H33        -1.4980   -3.2881    8.1880 H         1 <0>         0.4801
     69 H34        -1.9378   -4.8560    8.8013 H         1 <0>         0.4806
     70 H35        -3.8923   -3.3388    5.4474 H         1 <0>         0.4689
     71 H36         0.9382   -3.5340    4.9302 H         1 <0>         0.4505
     72 H37        -2.8855    1.7865    2.2310 H         1 <0>         0.4443
@<TRIPOS>BOND
     1    1    2 ar
     2    1    3 ar
     3    2    4 ar
     4    3    6 ar
     5    4    5 ar
     6    4   10 1
     7    5    6 ar
     8    5   24 1
     9    6   35 1
    10    7   15 1
    11    7   30 2
    12    7   34 1
    13    8   23 1
    14    8   25 am
    15    8   31 2
    16    9   26 1
    17    9   27 1
    18    9   28 1
    19   10   16 1
    20   11   13 1
    21   11   17 1
    22   12   15 1
    23   12   17 1
    24   13   25 1
    25   14   16 1
    26   14   24 1
    27   15   25 1
    28   16   18 1
    29   17   19 1
    30   20   21 1
    31   20   22 1
    32   21   23 1
    33   22   28 1
    34   23   29 1
    35   29   35 1
    36   32   35 2
    37   33   35 2
    38    1   36 1
    39    2   37 1
    40    3   38 1
    41   10   39 1
    42   10   40 1
    43   11   41 1
    44   11   42 1
    45   12   43 1
    46   12   44 1
    47   13   45 1
    48   13   46 1
    49   14   47 1
    50   14   48 1
    51   15   49 1
    52   16   50 1
    53   17   51 1
    54   18   52 1
    55   18   53 1
    56   18   54 1
    57   19   55 1
    58   19   56 1
    59   19   57 1
    60   20   58 1
    61   20   59 1
    62   21   60 1
    63   21   61 1
    64   22   62 1
    65   22   63 1
    66   23   64 1
    67   24   65 1
    68   26   66 1
    69   26   67 1
    70   27   68 1
    71   27   69 1
    72   28   70 1
    73   29   71 1
    74   34   72 1
@<TRIPOS>MOLECULE
1dwc_ligand_297
   72    74     0     0     0
SMALL
USER_CHARGES

mmff94s_NoEstat = 81.39
@<TRIPOS>ATOM
      1 C1          0.3205    0.2218    6.9260 C.ar      1 <0>        -0.1945
      2 C2          0.4995    1.4601    6.3130 C.ar      1 <0>        -0.0294
      3 C3         -0.5256   -0.7215    6.3505 C.ar      1 <0>        -0.0143
      4 C4         -0.1655    1.7608    5.1157 C.ar      1 <0>        -0.1552
      5 C5         -1.0462    0.8223    4.5419 C.ar      1 <0>         0.3076
      6 C6         -1.2011   -0.4241    5.1658 C.ar      1 <0>        -0.4908
      7 C7          2.9525   -3.7210    4.6633 C.2       1 <0>         0.5994
      8 C8          0.8654   -1.4427    3.2413 C.2       1 <0>         0.6462
      9 C9          2.0746   -5.2044   -1.4852 C.cat     1 <0>         0.6305
     10 C10         0.0346    3.1106    4.4690 C.3       1 <0>        -0.0319
     11 C11         3.8997   -0.0663    4.7953 C.3       1 <0>        -0.0918
     12 C12         3.0155   -1.8674    6.2922 C.3       1 <0>        -0.0841
     13 C13         3.1900   -0.7124    3.6122 C.3       1 <0>         0.0870
     14 C14        -1.7112    2.4331    2.8019 C.3       1 <0>         0.2023
     15 C15         2.2314   -2.4635    5.1202 C.3       1 <0>         0.0778
     16 C16        -0.3325    3.0781    2.9771 C.3       1 <0>        -0.0746
     17 C17         4.2756   -1.1130    5.8473 C.3       1 <0>        -0.0681
     18 C18        -0.3048    4.4824    2.3800 C.3       1 <0>        -0.0944
     19 C19         4.9663   -0.4582    7.0420 C.3       1 <0>        -0.0918
     20 C20         0.0249   -2.8727    0.7002 C.3       1 <0>        -0.1192
     21 C21         0.3004   -3.5693    2.0376 C.3       1 <0>        -0.0916
     22 C22         0.2602   -3.7963   -0.4886 C.3       1 <0>         0.1883
     23 C23        -0.0078   -2.6730    3.2260 C.3       1 <0>         0.1952
     24 N1         -1.7179    1.0923    3.3560 N.pl3     1 <0>        -0.7670
     25 N2          2.0252   -1.5038    4.0223 N.am      1 <0>        -0.4509
     26 N3          3.3877   -5.6631   -1.4955 N.pl3     1 <0>        -0.8477
     27 N4          1.1890   -5.6621   -2.4548 N.pl3     1 <0>        -0.8633
     28 N5          1.6278   -4.2942   -0.5212 N.pl3     1 <0>        -0.7419
     29 N6         -1.3760   -2.1385    3.1042 N.pl3     1 <0>        -0.8860
     30 O1          3.7741   -3.7699    3.7601 O.2       1 <0>        -0.5199
     31 O2          0.5240   -0.4555    2.5844 O.2       1 <0>        -0.6131
     32 O3         -2.2645   -2.7847    5.4337 O.2       1 <0>        -0.6576
     33 O4         -3.4757   -1.0330    4.0961 O.2       1 <0>        -0.6482
     34 O5          2.5581   -4.7916    5.3952 O.3       1 <0>        -0.6303
     35 S1         -2.2397   -1.6774    4.4970 S.o2      1 <0>         1.5193
     36 H1          0.8435   -0.0082    7.8502 H         1 <0>         0.1426
     37 H2          1.1648    2.1899    6.7682 H         1 <0>         0.1398
     38 H3         -0.6680   -1.6917    6.8158 H         1 <0>         0.1599
     39 H4         -0.5887    3.8423    4.9988 H         1 <0>         0.0574
     40 H5          1.0806    3.4239    4.5739 H         1 <0>         0.0629
     41 H6          4.7987    0.4538    4.4437 H         1 <0>         0.0614
     42 H7          3.2442    0.6909    5.2441 H         1 <0>         0.0593
     43 H8          2.3586   -1.1679    6.8273 H         1 <0>         0.0841
     44 H9          3.2888   -2.6509    7.0104 H         1 <0>         0.0679
     45 H10         2.8945    0.0639    2.8988 H         1 <0>         0.0826
     46 H11         3.8704   -1.3909    3.0835 H         1 <0>         0.0383
     47 H12        -2.4838    3.0348    3.2965 H         1 <0>         0.0556
     48 H13        -1.9724    2.3804    1.7391 H         1 <0>         0.0415
     49 H14         1.2607   -2.8048    5.4936 H         1 <0>         0.0851
     50 H15         0.4108    2.4697    2.4442 H         1 <0>         0.0639
     51 H16         4.9839   -1.8245    5.4052 H         1 <0>         0.0584
     52 H17        -0.3231    4.4358    1.2871 H         1 <0>         0.0401
     53 H18        -1.1718    5.0598    2.7148 H         1 <0>         0.0440
     54 H19         0.6017    5.0127    2.6870 H         1 <0>         0.0459
     55 H20         4.4464   -0.7091    7.9715 H         1 <0>         0.0456
     56 H21         6.0020   -0.8015    7.1231 H         1 <0>         0.0366
     57 H22         4.9717    0.6305    6.9335 H         1 <0>         0.0474
     58 H23        -1.0105   -2.5120    0.6824 H         1 <0>         0.0800
     59 H24         0.6776   -1.9980    0.5976 H         1 <0>         0.0681
     60 H25         1.3460   -3.9033    2.0652 H         1 <0>         0.0740
     61 H26        -0.3175   -4.4733    2.1109 H         1 <0>         0.0631
     62 H27         0.0590   -3.2831   -1.4342 H         1 <0>         0.0970
     63 H28        -0.4054   -4.6631   -0.4257 H         1 <0>         0.0725
     64 H29         0.1003   -3.1895    4.1787 H         1 <0>         0.0839
     65 H30        -2.3965    0.4186    3.0229 H         1 <0>         0.4531
     66 H31         4.0702   -5.3548   -0.8082 H         1 <0>         0.4798
     67 H32         3.7046   -6.3246   -2.2006 H         1 <0>         0.4881
     68 H33         0.2221   -5.3473   -2.4765 H         1 <0>         0.4801
     69 H34         1.4849   -6.3248   -3.1675 H         1 <0>         0.4806
     70 H35         2.3012   -3.9765    0.1776 H         1 <0>         0.4689
     71 H36        -1.6042   -1.6955    2.2078 H         1 <0>         0.4505
     72 H37         3.0115   -5.6147    5.1139 H         1 <0>         0.4443
@<TRIPOS>BOND
     1    1    2 ar
     2    1    3 ar
     3    2    4 ar
     4    3    6 ar
     5    4    5 ar
     6    4   10 1
     7    5    6 ar
     8    5   24 1
     9    6   35 1
    10    7   15 1
    11    7   30 2
    12    7   34 1
    13    8   23 1
    14    8   25 am
    15    8   31 2
    16    9   26 1
    17    9   27 1
    18    9   28 1
    19   10   16 1
    20   11   13 1
    21   11   17 1
    22   12   15 1
    23   12   17 1
    24   13   25 1
    25   14   16 1
    26   14   24 1
    27   15   25 1
    28   16   18 1
    29   17   19 1
    30   20   21 1
    31   20   22 1
    32   21   23 1
    33   22   28 1
    34   23   29 1
    35   29   35 1
    36   32   35 2
    37   33   35 2
    38    1   36 1
    39    2   37 1
    40    3   38 1
    41   10   39 1
    42   10   40 1
    43   11   41 1
    44   11   42 1
    45   12   43 1
    46   12   44 1
    47   13   45 1
    48   13   46 1
    49   14   47 1
    50   14   48 1
    51   15   49 1
    52   16   50 1
    53   17   51 1
    54   18   52 1
    55   18   53 1
    56   18   54 1
    57   19   55 1
    58   19   56 1
    59   19   57 1
    60   20   58 1
    61   20   59 1
    62   21   60 1
    63   21   61 1
    64   22   62 1
    65   22   63 1
    66   23   64 1
    67   24   65 1
    68   26   66 1
    69   26   67 1
    70   27   68 1
    71   27   69 1
    72   28   70 1
    73   29   71 1
    74   34   72 1
@<TRIPOS>MOLECULE
1dwc_ligand_298
   72    74     0     0     0
SMALL
USER_CHARGES

mmff94s_NoEstat = 81.41
@<TRIPOS>ATOM
      1 C1          0.6093   -6.2514   -1.1331 C.ar      1 <0>        -0.1945
      2 C2          1.7391   -6.9534   -0.7183 C.ar      1 <0>        -0.0294
      3 C3          0.7343   -5.2205   -2.0596 C.ar      1 <0>        -0.0143
      4 C4          3.0029   -6.6298   -1.2325 C.ar      1 <0>        -0.1552
      5 C5          3.1419   -5.5684   -2.1489 C.ar      1 <0>         0.3076
      6 C6          1.9909   -4.8841   -2.5656 C.ar      1 <0>        -0.4908
      7 C7          2.4038   -0.4910    2.4030 C.2       1 <0>         0.5994
      8 C8          2.9466   -1.3973   -0.6457 C.2       1 <0>         0.6462
      9 C9          5.5099    2.9416   -5.0187 C.cat     1 <0>         0.6305
     10 C10         4.2174   -7.3963   -0.7662 C.3       1 <0>        -0.0319
     11 C11         3.9178   -3.4419    2.3602 C.3       1 <0>        -0.0918
     12 C12         4.8012   -1.0545    2.5913 C.3       1 <0>        -0.0841
     13 C13         4.0430   -3.0960    0.8803 C.3       1 <0>         0.0870
     14 C14         5.5937   -5.7970   -2.1205 C.3       1 <0>         0.2023
     15 C15         3.6790   -0.7248    1.6100 C.3       1 <0>         0.0778
     16 C16         5.3776   -7.2719   -1.7663 C.3       1 <0>        -0.0746
     17 C17         4.6242   -2.4243    3.2705 C.3       1 <0>        -0.0681
     18 C18         6.6521   -7.8917   -1.1998 C.3       1 <0>        -0.0944
     19 C19         5.9763   -2.9527    3.7531 C.3       1 <0>        -0.0918
     20 C20         4.0666    0.0061   -3.0917 C.3       1 <0>        -0.1192
     21 C21         4.5564   -1.3488   -2.5679 C.3       1 <0>        -0.0916
     22 C22         5.1498    0.7503   -3.8628 C.3       1 <0>         0.1883
     23 C23         3.4544   -2.1251   -1.8653 C.3       1 <0>         0.1952
     24 N1          4.3811   -5.2258   -2.6756 N.pl3     1 <0>        -0.7670
     25 N2          3.5192   -1.7560    0.5781 N.am      1 <0>        -0.4509
     26 N3          5.0373    4.1732   -5.4600 N.pl3     1 <0>        -0.8477
     27 N4          6.8343    2.5959   -5.2649 N.pl3     1 <0>        -0.8633
     28 N5          4.6819    2.0459   -4.3336 N.pl3     1 <0>        -0.7419
     29 N6          2.2741   -2.2179   -2.7432 N.pl3     1 <0>        -0.8860
     30 O1          2.2729    0.3351    3.2940 O.2       1 <0>        -0.5199
     31 O2          2.0685   -0.5400   -0.7710 O.2       1 <0>        -0.6131
     32 O3          3.2466   -3.7694   -4.5546 O.2       1 <0>        -0.6576
     33 O4          0.7526   -3.5048   -4.3692 O.2       1 <0>        -0.6482
     34 O5          1.4223   -1.3294    1.9894 O.3       1 <0>        -0.6303
     35 S1          2.0591   -3.5786   -3.7438 S.o2      1 <0>         1.5193
     36 H1         -0.3683   -6.5110   -0.7364 H         1 <0>         0.1426
     37 H2          1.6316   -7.7594    0.0037 H         1 <0>         0.1398
     38 H3         -0.1396   -4.6708   -2.3946 H         1 <0>         0.1599
     39 H4          4.5163   -7.0048    0.2145 H         1 <0>         0.0574
     40 H5          3.9649   -8.4563   -0.6405 H         1 <0>         0.0629
     41 H6          2.8510   -3.4591    2.6203 H         1 <0>         0.0614
     42 H7          4.2939   -4.4553    2.5428 H         1 <0>         0.0593
     43 H8          5.7524   -1.0436    2.0413 H         1 <0>         0.0841
     44 H9          4.8832   -0.2779    3.3625 H         1 <0>         0.0679
     45 H10         5.0934   -3.1114    0.5668 H         1 <0>         0.0826
     46 H11         3.5122   -3.8428    0.2819 H         1 <0>         0.0383
     47 H12         5.8905   -5.2266   -1.2316 H         1 <0>         0.0556
     48 H13         6.4019   -5.6981   -2.8538 H         1 <0>         0.0415
     49 H14         3.9015    0.2290    1.1168 H         1 <0>         0.0851
     50 H15         5.1141   -7.8187   -2.6818 H         1 <0>         0.0639
     51 H16         4.0032   -2.2947    4.1661 H         1 <0>         0.0584
     52 H17         7.3989   -8.0232   -1.9884 H         1 <0>         0.0401
     53 H18         7.0798   -7.2498   -0.4238 H         1 <0>         0.0440
     54 H19         6.4404   -8.8706   -0.7592 H         1 <0>         0.0459
     55 H20         5.8782   -3.4157    4.7396 H         1 <0>         0.0456
     56 H21         6.3665   -3.7022    3.0580 H         1 <0>         0.0366
     57 H22         6.7034   -2.1384    3.8257 H         1 <0>         0.0474
     58 H23         3.1961   -0.1462   -3.7411 H         1 <0>         0.0800
     59 H24         3.7428    0.6319   -2.2522 H         1 <0>         0.0681
     60 H25         5.4094   -1.1917   -1.8946 H         1 <0>         0.0740
     61 H26         4.9285   -1.9502   -3.4070 H         1 <0>         0.0631
     62 H27         5.4874    0.1718   -4.7286 H         1 <0>         0.0970
     63 H28         6.0148    0.9268   -3.2156 H         1 <0>         0.0725
     64 H29         3.7703   -3.1244   -1.5692 H         1 <0>         0.0839
     65 H30         4.4419   -4.4093   -3.2714 H         1 <0>         0.4531
     66 H31         4.0769    4.4674   -5.3045 H         1 <0>         0.4798
     67 H32         5.6462    4.8184   -5.9581 H         1 <0>         0.4881
     68 H33         7.2124    1.7035   -4.9563 H         1 <0>         0.4801
     69 H34         7.4600    3.2272   -5.7595 H         1 <0>         0.4806
     70 H35         3.7146    2.3280   -4.1678 H         1 <0>         0.4689
     71 H36         1.4502   -1.6870   -2.4414 H         1 <0>         0.4505
     72 H37         0.5902   -1.1952    2.4913 H         1 <0>         0.4443
@<TRIPOS>BOND
     1    1    2 ar
     2    1    3 ar
     3    2    4 ar
     4    3    6 ar
     5    4    5 ar
     6    4   10 1
     7    5    6 ar
     8    5   24 1
     9    6   35 1
    10    7   15 1
    11    7   30 2
    12    7   34 1
    13    8   23 1
    14    8   25 am
    15    8   31 2
    16    9   26 1
    17    9   27 1
    18    9   28 1
    19   10   16 1
    20   11   13 1
    21   11   17 1
    22   12   15 1
    23   12   17 1
    24   13   25 1
    25   14   16 1
    26   14   24 1
    27   15   25 1
    28   16   18 1
    29   17   19 1
    30   20   21 1
    31   20   22 1
    32   21   23 1
    33   22   28 1
    34   23   29 1
    35   29   35 1
    36   32   35 2
    37   33   35 2
    38    1   36 1
    39    2   37 1
    40    3   38 1
    41   10   39 1
    42   10   40 1
    43   11   41 1
    44   11   42 1
    45   12   43 1
    46   12   44 1
    47   13   45 1
    48   13   46 1
    49   14   47 1
    50   14   48 1
    51   15   49 1
    52   16   50 1
    53   17   51 1
    54   18   52 1
    55   18   53 1
    56   18   54 1
    57   19   55 1
    58   19   56 1
    59   19   57 1
    60   20   58 1
    61   20   59 1
    62   21   60 1
    63   21   61 1
    64   22   62 1
    65   22   63 1
    66   23   64 1
    67   24   65 1
    68   26   66 1
    69   26   67 1
    70   27   68 1
    71   27   69 1
    72   28   70 1
    73   29   71 1
    74   34   72 1
@<TRIPOS>MOLECULE
1dwc_ligand_299
   72    74     0     0     0
SMALL
USER_CHARGES

mmff94s_NoEstat = 81.42
@<TRIPOS>ATOM
      1 C1         -3.3475   -6.3503    1.8791 C.ar      1 <0>        -0.1945
      2 C2         -3.9958   -5.9344    0.7180 C.ar      1 <0>        -0.0294
      3 C3         -2.9512   -5.4113    2.8268 C.ar      1 <0>        -0.0143
      4 C4         -4.2554   -4.5738    0.4999 C.ar      1 <0>        -0.1552
      5 C5         -3.8316   -3.6142    1.4408 C.ar      1 <0>         0.3076
      6 C6         -3.1944   -4.0540    2.6102 C.ar      1 <0>        -0.4908
      7 C7          3.7233   -2.4449    4.7893 C.2       1 <0>         0.5994
      8 C8          0.8654   -1.4427    3.2413 C.2       1 <0>         0.6462
      9 C9         -0.6326   -5.9229   -1.4626 C.cat     1 <0>         0.6305
     10 C10        -4.9524   -4.1403   -0.7675 C.3       1 <0>        -0.0319
     11 C11         1.7658    0.4222    6.2790 C.3       1 <0>        -0.0918
     12 C12         2.2228   -2.0030    6.6989 C.3       1 <0>        -0.0841
     13 C13         1.9003    0.1799    4.7810 C.3       1 <0>         0.0870
     14 C14        -4.5641   -1.7769   -0.0261 C.3       1 <0>         0.2023
     15 C15         2.2690   -2.2605    5.1905 C.3       1 <0>         0.0778
     16 C16        -5.5921   -2.7519   -0.6095 C.3       1 <0>        -0.0746
     17 C17         2.6202   -0.5689    7.0736 C.3       1 <0>        -0.0681
     18 C18        -6.1301   -2.2464   -1.9453 C.3       1 <0>        -0.0944
     19 C19         2.4647   -0.3375    8.5754 C.3       1 <0>        -0.0918
     20 C20         0.0249   -2.8727    0.7002 C.3       1 <0>        -0.1192
     21 C21         0.3004   -3.5693    2.0376 C.3       1 <0>        -0.0916
     22 C22         0.2602   -3.7963   -0.4886 C.3       1 <0>         0.1883
     23 C23        -0.0078   -2.6730    3.2260 C.3       1 <0>         0.1952
     24 N1         -4.0757   -2.2595    1.2518 N.pl3     1 <0>        -0.7670
     25 N2          1.5999   -1.2067    4.4091 N.am      1 <0>        -0.4509
     26 N3         -1.4804   -7.0239   -1.4014 N.pl3     1 <0>        -0.8477
     27 N4          0.2178   -5.7819   -2.5539 N.pl3     1 <0>        -0.8633
     28 N5         -0.6182   -4.9567   -0.4508 N.pl3     1 <0>        -0.7419
     29 N6         -1.3760   -2.1385    3.1042 N.pl3     1 <0>        -0.8860
     30 O1          4.4523   -1.5599    4.3665 O.2       1 <0>        -0.5199
     31 O2          0.8891   -0.7105    2.2483 O.2       1 <0>        -0.6131
     32 O3         -3.7495   -1.9880    4.0928 O.2       1 <0>        -0.6576
     33 O4         -2.1627   -3.7355    4.9602 O.2       1 <0>        -0.6482
     34 O5          4.1079   -3.7331    4.9617 O.3       1 <0>        -0.6303
     35 S1         -2.6746   -2.9347    3.8647 S.o2      1 <0>         1.5193
     36 H1         -3.1550   -7.4065    2.0458 H         1 <0>         0.1426
     37 H2         -4.3045   -6.6753   -0.0157 H         1 <0>         0.1398
     38 H3         -2.4509   -5.7242    3.7377 H         1 <0>         0.1599
     39 H4         -4.2148   -4.1296   -1.5800 H         1 <0>         0.0574
     40 H5         -5.7315   -4.8656   -1.0323 H         1 <0>         0.0629
     41 H6          2.0669    1.4503    6.5123 H         1 <0>         0.0614
     42 H7          0.7128    0.3207    6.5714 H         1 <0>         0.0593
     43 H8          1.1978   -2.1858    7.0494 H         1 <0>         0.0841
     44 H9          2.8666   -2.7151    7.2306 H         1 <0>         0.0679
     45 H10         1.2456    0.8722    4.2416 H         1 <0>         0.0826
     46 H11         2.9258    0.3867    4.4518 H         1 <0>         0.0383
     47 H12        -3.7191   -1.6505   -0.7142 H         1 <0>         0.0556
     48 H13        -5.0170   -0.7893    0.1158 H         1 <0>         0.0415
     49 H14         1.7884   -3.2235    4.9909 H         1 <0>         0.0851
     50 H15        -6.4375   -2.8304    0.0874 H         1 <0>         0.0639
     51 H16         3.6763   -0.4106    6.8224 H         1 <0>         0.0584
     52 H17        -6.7909   -1.3877   -1.7933 H         1 <0>         0.0401
     53 H18        -5.3086   -1.9377   -2.5987 H         1 <0>         0.0440
     54 H19        -6.6976   -3.0320   -2.4531 H         1 <0>         0.0459
     55 H20         2.1532   -1.2591    9.0761 H         1 <0>         0.0456
     56 H21         3.4121   -0.0103    9.0142 H         1 <0>         0.0366
     57 H22         1.7112    0.4316    8.7697 H         1 <0>         0.0474
     58 H23        -1.0105   -2.5120    0.6824 H         1 <0>         0.0800
     59 H24         0.6776   -1.9980    0.5976 H         1 <0>         0.0681
     60 H25         1.3460   -3.9033    2.0652 H         1 <0>         0.0740
     61 H26        -0.3175   -4.4733    2.1109 H         1 <0>         0.0631
     62 H27         1.2957   -4.1503   -0.5157 H         1 <0>         0.0970
     63 H28         0.0608   -3.2615   -1.4226 H         1 <0>         0.0725
     64 H29         0.1003   -3.1895    4.1787 H         1 <0>         0.0839
     65 H30        -3.6865   -1.6028    1.9171 H         1 <0>         0.4531
     66 H31        -2.1173   -7.1693   -0.6226 H         1 <0>         0.4798
     67 H32        -1.4841   -7.7223   -2.1412 H         1 <0>         0.4881
     68 H33         0.8505   -4.9892   -2.6303 H         1 <0>         0.4801
     69 H34         0.2286   -6.4677   -3.3050 H         1 <0>         0.4806
     70 H35        -1.2539   -5.0876    0.3375 H         1 <0>         0.4689
     71 H36        -1.4476   -1.1318    2.9219 H         1 <0>         0.4505
     72 H37         5.0446   -3.8732    4.7061 H         1 <0>         0.4443
@<TRIPOS>BOND
     1    1    2 ar
     2    1    3 ar
     3    2    4 ar
     4    3    6 ar
     5    4    5 ar
     6    4   10 1
     7    5    6 ar
     8    5   24 1
     9    6   35 1
    10    7   15 1
    11    7   30 2
    12    7   34 1
    13    8   23 1
    14    8   25 am
    15    8   31 2
    16    9   26 1
    17    9   27 1
    18    9   28 1
    19   10   16 1
    20   11   13 1
    21   11   17 1
    22   12   15 1
    23   12   17 1
    24   13   25 1
    25   14   16 1
    26   14   24 1
    27   15   25 1
    28   16   18 1
    29   17   19 1
    30   20   21 1
    31   20   22 1
    32   21   23 1
    33   22   28 1
    34   23   29 1
    35   29   35 1
    36   32   35 2
    37   33   35 2
    38    1   36 1
    39    2   37 1
    40    3   38 1
    41   10   39 1
    42   10   40 1
    43   11   41 1
    44   11   42 1
    45   12   43 1
    46   12   44 1
    47   13   45 1
    48   13   46 1
    49   14   47 1
    50   14   48 1
    51   15   49 1
    52   16   50 1
    53   17   51 1
    54   18   52 1
    55   18   53 1
    56   18   54 1
    57   19   55 1
    58   19   56 1
    59   19   57 1
    60   20   58 1
    61   20   59 1
    62   21   60 1
    63   21   61 1
    64   22   62 1
    65   22   63 1
    66   23   64 1
    67   24   65 1
    68   26   66 1
    69   26   67 1
    70   27   68 1
    71   27   69 1
    72   28   70 1
    73   29   71 1
    74   34   72 1
@<TRIPOS>MOLECULE
1dwc_ligand_300
   72    74     0     0     0
SMALL
USER_CHARGES

mmff94s_NoEstat = 81.44
@<TRIPOS>ATOM
      1 C1         -0.8286   -2.9199    0.8534 C.ar      1 <0>        -0.1945
      2 C2         -1.7033   -1.8794    0.5476 C.ar      1 <0>        -0.0294
      3 C3          0.0428   -3.4022   -0.1187 C.ar      1 <0>        -0.0143
      4 C4         -1.7082   -1.3114   -0.7344 C.ar      1 <0>        -0.1552
      5 C5         -0.8495   -1.8133   -1.7326 C.ar      1 <0>         0.3076
      6 C6          0.0341   -2.8506   -1.4009 C.ar      1 <0>        -0.4908
      7 C7          1.8102   -1.5505    2.3702 C.2       1 <0>         0.5994
      8 C8          2.9466   -1.3973   -0.6457 C.2       1 <0>         0.6462
      9 C9          6.7753    0.8568   -5.4736 C.cat     1 <0>         0.6305
     10 C10        -2.6680   -0.1893   -1.0504 C.3       1 <0>        -0.0319
     11 C11         4.4920   -3.4807    2.0801 C.3       1 <0>        -0.0918
     12 C12         4.1798   -1.0721    2.8769 C.3       1 <0>        -0.0841
     13 C13         4.5658   -2.7774    0.7291 C.3       1 <0>         0.0870
     14 C14        -1.8587   -0.3297   -3.4192 C.3       1 <0>         0.2023
     15 C15         3.1125   -1.0286    1.7861 C.3       1 <0>         0.0778
     16 C16        -2.2007    0.6226   -2.2686 C.3       1 <0>        -0.0746
     17 C17         4.5869   -2.5050    3.2643 C.3       1 <0>        -0.0681
     18 C18        -3.2657    1.6312   -2.6903 C.3       1 <0>        -0.0944
     19 C19         5.9882   -2.5079    3.8779 C.3       1 <0>        -0.0918
     20 C20         5.1203   -2.1076   -3.7746 C.3       1 <0>        -0.1192
     21 C21         4.5564   -1.3488   -2.5679 C.3       1 <0>        -0.0916
     22 C22         6.2766   -1.3646   -4.4322 C.3       1 <0>         0.1883
     23 C23         3.4544   -2.1251   -1.8653 C.3       1 <0>         0.1952
     24 N1         -0.8320   -1.2699   -3.0112 N.pl3     1 <0>        -0.7670
     25 N2          3.5192   -1.7560    0.5781 N.am      1 <0>        -0.4509
     26 N3          6.3666    2.1153   -5.9029 N.pl3     1 <0>        -0.8477
     27 N4          8.1063    0.4860   -5.6311 N.pl3     1 <0>        -0.8633
     28 N5          5.8764   -0.0411   -4.8880 N.pl3     1 <0>        -0.7419
     29 N6          2.2741   -2.2179   -2.7432 N.pl3     1 <0>        -0.8860
     30 O1          1.4308   -2.7108    2.3137 O.2       1 <0>        -0.5199
     31 O2          2.0685   -0.5400   -0.7710 O.2       1 <0>        -0.6131
     32 O3          1.8544   -4.6301   -1.9439 O.2       1 <0>        -0.6576
     33 O4          0.4554   -3.6903   -3.8104 O.2       1 <0>        -0.6482
     34 O5          1.1172   -0.5491    2.9655 O.3       1 <0>        -0.6303
     35 S1          1.1775   -3.5081   -2.5659 S.o2      1 <0>         1.5193
     36 H1         -0.8245   -3.3517    1.8505 H         1 <0>         0.1426
     37 H2         -2.3785   -1.5069    1.3143 H         1 <0>         0.1398
     38 H3          0.7327   -4.2083    0.1098 H         1 <0>         0.1599
     39 H4         -3.6572   -0.6251   -1.2397 H         1 <0>         0.0574
     40 H5         -2.7573    0.4805   -0.1863 H         1 <0>         0.0629
     41 H6          3.5311   -4.0088    2.1410 H         1 <0>         0.0614
     42 H7          5.2694   -4.2509    2.1463 H         1 <0>         0.0593
     43 H8          5.0641   -0.5305    2.5137 H         1 <0>         0.0841
     44 H9          3.8399   -0.5392    3.7741 H         1 <0>         0.0679
     45 H10         5.5312   -2.2723    0.6079 H         1 <0>         0.0826
     46 H11         4.4795   -3.5150   -0.0747 H         1 <0>         0.0383
     47 H12        -2.7506   -0.8819   -3.7404 H         1 <0>         0.0556
     48 H13        -1.4988    0.2368   -4.2854 H         1 <0>         0.0415
     49 H14         2.9188    0.0160    1.5141 H         1 <0>         0.0851
     50 H15        -1.2960    1.1816   -1.9939 H         1 <0>         0.0639
     51 H16         3.9047   -2.8651    4.0450 H         1 <0>         0.0584
     52 H17        -2.8470    2.3638   -3.3867 H         1 <0>         0.0401
     53 H18        -4.1008    1.1249   -3.1838 H         1 <0>         0.0440
     54 H19        -3.6540    2.1670   -1.8190 H         1 <0>         0.0459
     55 H20         6.0310   -3.1862    4.7353 H         1 <0>         0.0456
     56 H21         6.7293   -2.8350    3.1425 H         1 <0>         0.0366
     57 H22         6.2606   -1.5045    4.2187 H         1 <0>         0.0474
     58 H23         5.4592   -3.1007   -3.4560 H         1 <0>         0.0800
     59 H24         4.3307   -2.2553   -4.5204 H         1 <0>         0.0681
     60 H25         4.1906   -0.3664   -2.8945 H         1 <0>         0.0740
     61 H26         5.3633   -1.1575   -1.8491 H         1 <0>         0.0631
     62 H27         6.6666   -1.9201   -5.2910 H         1 <0>         0.0970
     63 H28         7.0930   -1.2338   -3.7147 H         1 <0>         0.0725
     64 H29         3.7703   -3.1244   -1.5692 H         1 <0>         0.0839
     65 H30        -0.2532   -1.7124   -3.7145 H         1 <0>         0.4531
     66 H31         5.4041    2.4285   -5.8100 H         1 <0>         0.4798
     67 H32         7.0268    2.7620   -6.3283 H         1 <0>         0.4881
     68 H33         8.4388   -0.4263   -5.3285 H         1 <0>         0.4801
     69 H34         8.7827    1.1182   -6.0523 H         1 <0>         0.4806
     70 H35         4.9060    0.2597   -4.7858 H         1 <0>         0.4689
     71 H36         1.9407   -1.3323   -3.1385 H         1 <0>         0.4505
     72 H37         0.2712   -0.8659    3.3478 H         1 <0>         0.4443
@<TRIPOS>BOND
     1    1    2 ar
     2    1    3 ar
     3    2    4 ar
     4    3    6 ar
     5    4    5 ar
     6    4   10 1
     7    5    6 ar
     8    5   24 1
     9    6   35 1
    10    7   15 1
    11    7   30 2
    12    7   34 1
    13    8   23 1
    14    8   25 am
    15    8   31 2
    16    9   26 1
    17    9   27 1
    18    9   28 1
    19   10   16 1
    20   11   13 1
    21   11   17 1
    22   12   15 1
    23   12   17 1
    24   13   25 1
    25   14   16 1
    26   14   24 1
    27   15   25 1
    28   16   18 1
    29   17   19 1
    30   20   21 1
    31   20   22 1
    32   21   23 1
    33   22   28 1
    34   23   29 1
    35   29   35 1
    36   32   35 2
    37   33   35 2
    38    1   36 1
    39    2   37 1
    40    3   38 1
    41   10   39 1
    42   10   40 1
    43   11   41 1
    44   11   42 1
    45   12   43 1
    46   12   44 1
    47   13   45 1
    48   13   46 1
    49   14   47 1
    50   14   48 1
    51   15   49 1
    52   16   50 1
    53   17   51 1
    54   18   52 1
    55   18   53 1
    56   18   54 1
    57   19   55 1
    58   19   56 1
    59   19   57 1
    60   20   58 1
    61   20   59 1
    62   21   60 1
    63   21   61 1
    64   22   62 1
    65   22   63 1
    66   23   64 1
    67   24   65 1
    68   26   66 1
    69   26   67 1
    70   27   68 1
    71   27   69 1
    72   28   70 1
    73   29   71 1
    74   34   72 1
@<TRIPOS>MOLECULE
1dwc_ligand_301
   72    74     0     0     0
SMALL
USER_CHARGES

mmff94s_NoEstat = 81.45
@<TRIPOS>ATOM
      1 C1          3.0864   -6.8132   -1.6121 C.ar      1 <0>        -0.1945
      2 C2          2.0235   -6.9752   -0.7260 C.ar      1 <0>        -0.0294
      3 C3          3.0725   -5.7656   -2.5283 C.ar      1 <0>        -0.0143
      4 C4          0.9399   -6.0855   -0.7488 C.ar      1 <0>        -0.1552
      5 C5          0.9045   -5.0397   -1.6925 C.ar      1 <0>         0.3076
      6 C6          1.9909   -4.8841   -2.5656 C.ar      1 <0>        -0.4908
      7 C7          1.7641   -2.7212    2.0487 C.2       1 <0>         0.5994
      8 C8          2.9466   -1.3973   -0.6457 C.2       1 <0>         0.6462
      9 C9          6.8717    0.1379   -5.5739 C.cat     1 <0>         0.6305
     10 C10        -0.2069   -6.2806    0.2139 C.3       1 <0>        -0.0319
     11 C11         5.0423   -3.2056    1.9033 C.3       1 <0>        -0.0918
     12 C12         3.6127   -1.4179    3.0409 C.3       1 <0>        -0.0841
     13 C13         4.8985   -2.2417    0.7304 C.3       1 <0>         0.0870
     14 C14        -1.3613   -4.3977   -0.9727 C.3       1 <0>         0.2023
     15 C15         2.7323   -1.5757    1.8036 C.3       1 <0>         0.0778
     16 C16        -1.0112   -4.9842    0.3988 C.3       1 <0>        -0.0746
     17 C17         4.5907   -2.5900    3.2377 C.3       1 <0>        -0.0681
     18 C18        -2.2700   -5.2387    1.2234 C.3       1 <0>        -0.0944
     19 C19         5.7878   -2.1430    4.0786 C.3       1 <0>        -0.0918
     20 C20         4.0666    0.0061   -3.0917 C.3       1 <0>        -0.1192
     21 C21         4.5564   -1.3488   -2.5679 C.3       1 <0>        -0.0916
     22 C22         5.1498    0.7503   -3.8628 C.3       1 <0>         0.1883
     23 C23         3.4544   -2.1251   -1.8653 C.3       1 <0>         0.1952
     24 N1         -0.1556   -4.1426   -1.7381 N.pl3     1 <0>        -0.7670
     25 N2          3.5192   -1.7560    0.5781 N.am      1 <0>        -0.4509
     26 N3          7.2676   -0.5908   -6.6907 N.pl3     1 <0>        -0.8477
     27 N4          7.7720    1.0199   -4.9859 N.pl3     1 <0>        -0.8633
     28 N5          5.5893    0.0019   -5.0317 N.pl3     1 <0>        -0.7419
     29 N6          2.2741   -2.2179   -2.7432 N.pl3     1 <0>        -0.8860
     30 O1          1.6542   -3.7110    1.3404 O.2       1 <0>        -0.5199
     31 O2          2.0685   -0.5400   -0.7710 O.2       1 <0>        -0.6131
     32 O3          3.2466   -3.7694   -4.5546 O.2       1 <0>        -0.6576
     33 O4          0.7526   -3.5048   -4.3692 O.2       1 <0>        -0.6482
     34 O5          1.0298   -2.4967    3.1656 O.3       1 <0>        -0.6303
     35 S1          2.0591   -3.5786   -3.7438 S.o2      1 <0>         1.5193
     36 H1          3.9266   -7.5016   -1.5854 H         1 <0>         0.1426
     37 H2          2.0443   -7.7948   -0.0116 H         1 <0>         0.1398
     38 H3          3.8977   -5.6260   -3.2193 H         1 <0>         0.1599
     39 H4         -0.8529   -7.0772   -0.1766 H         1 <0>         0.0574
     40 H5          0.1751   -6.6074    1.1889 H         1 <0>         0.0629
     41 H6          4.4221   -4.0890    1.7005 H         1 <0>         0.0614
     42 H7          6.0756   -3.5656    1.9699 H         1 <0>         0.0593
     43 H8          4.1829   -0.4841    2.9397 H         1 <0>         0.0841
     44 H9          2.9979   -1.3064    3.9432 H         1 <0>         0.0679
     45 H10         5.5377   -1.3623    0.8715 H         1 <0>         0.0826
     46 H11         5.2196   -2.7347   -0.1923 H         1 <0>         0.0383
     47 H12        -2.0084   -5.0849   -1.5319 H         1 <0>         0.0556
     48 H13        -1.9126   -3.4583   -0.8533 H         1 <0>         0.0415
     49 H14         2.1101   -0.6800    1.6885 H         1 <0>         0.0851
     50 H15        -0.3913   -4.2593    0.9436 H         1 <0>         0.0639
     51 H16         4.0846   -3.3774    3.8106 H         1 <0>         0.0584
     52 H17        -2.7070   -4.2936    1.5593 H         1 <0>         0.0401
     53 H18        -3.0178   -5.7721    0.6290 H         1 <0>         0.0440
     54 H19        -2.0361   -5.8426    2.1053 H         1 <0>         0.0459
     55 H20         6.0635   -2.9197    4.7982 H         1 <0>         0.0456
     56 H21         6.6531   -1.9424    3.4397 H         1 <0>         0.0366
     57 H22         5.5491   -1.2299    4.6321 H         1 <0>         0.0474
     58 H23         3.1961   -0.1462   -3.7411 H         1 <0>         0.0800
     59 H24         3.7428    0.6319   -2.2522 H         1 <0>         0.0681
     60 H25         5.4094   -1.1917   -1.8946 H         1 <0>         0.0740
     61 H26         4.9285   -1.9502   -3.4070 H         1 <0>         0.0631
     62 H27         6.0226    0.9442   -3.2312 H         1 <0>         0.0970
     63 H28         4.7647    1.7133   -4.2128 H         1 <0>         0.0725
     64 H29         3.7703   -3.1244   -1.5692 H         1 <0>         0.0839
     65 H30        -0.1728   -3.4550   -2.4811 H         1 <0>         0.4531
     66 H31         6.6445   -1.2481   -7.1521 H         1 <0>         0.4798
     67 H32         8.2024   -0.4862   -7.0783 H         1 <0>         0.4881
     68 H33         7.5155    1.5681   -4.1685 H         1 <0>         0.4801
     69 H34         8.7107    1.1406   -5.3587 H         1 <0>         0.4806
     70 H35         4.9508   -0.6532   -5.4853 H         1 <0>         0.4689
     71 H36         1.4502   -1.6870   -2.4414 H         1 <0>         0.4505
     72 H37         0.3964   -3.2252    3.3403 H         1 <0>         0.4443
@<TRIPOS>BOND
     1    1    2 ar
     2    1    3 ar
     3    2    4 ar
     4    3    6 ar
     5    4    5 ar
     6    4   10 1
     7    5    6 ar
     8    5   24 1
     9    6   35 1
    10    7   15 1
    11    7   30 2
    12    7   34 1
    13    8   23 1
    14    8   25 am
    15    8   31 2
    16    9   26 1
    17    9   27 1
    18    9   28 1
    19   10   16 1
    20   11   13 1
    21   11   17 1
    22   12   15 1
    23   12   17 1
    24   13   25 1
    25   14   16 1
    26   14   24 1
    27   15   25 1
    28   16   18 1
    29   17   19 1
    30   20   21 1
    31   20   22 1
    32   21   23 1
    33   22   28 1
    34   23   29 1
    35   29   35 1
    36   32   35 2
    37   33   35 2
    38    1   36 1
    39    2   37 1
    40    3   38 1
    41   10   39 1
    42   10   40 1
    43   11   41 1
    44   11   42 1
    45   12   43 1
    46   12   44 1
    47   13   45 1
    48   13   46 1
    49   14   47 1
    50   14   48 1
    51   15   49 1
    52   16   50 1
    53   17   51 1
    54   18   52 1
    55   18   53 1
    56   18   54 1
    57   19   55 1
    58   19   56 1
    59   19   57 1
    60   20   58 1
    61   20   59 1
    62   21   60 1
    63   21   61 1
    64   22   62 1
    65   22   63 1
    66   23   64 1
    67   24   65 1
    68   26   66 1
    69   26   67 1
    70   27   68 1
    71   27   69 1
    72   28   70 1
    73   29   71 1
    74   34   72 1
@<TRIPOS>MOLECULE
1dwc_ligand_302
   72    74     0     0     0
SMALL
USER_CHARGES

mmff94s_NoEstat = 81.46
@<TRIPOS>ATOM
      1 C1          0.6093   -6.2514   -1.1331 C.ar      1 <0>        -0.1945
      2 C2          1.7391   -6.9534   -0.7183 C.ar      1 <0>        -0.0294
      3 C3          0.7343   -5.2205   -2.0596 C.ar      1 <0>        -0.0143
      4 C4          3.0029   -6.6298   -1.2325 C.ar      1 <0>        -0.1552
      5 C5          3.1419   -5.5684   -2.1489 C.ar      1 <0>         0.3076
      6 C6          1.9909   -4.8841   -2.5656 C.ar      1 <0>        -0.4908
      7 C7          1.9683   -0.7067    2.3504 C.2       1 <0>         0.5994
      8 C8          2.9466   -1.3973   -0.6457 C.2       1 <0>         0.6462
      9 C9          8.2839   -0.2639   -4.3456 C.cat     1 <0>         0.6305
     10 C10         4.2174   -7.3963   -0.7662 C.3       1 <0>        -0.0319
     11 C11         2.1854   -3.9944    1.9686 C.3       1 <0>        -0.0918
     12 C12         3.8131   -2.2556    2.8966 C.3       1 <0>        -0.0841
     13 C13         2.8391   -3.5657    0.6593 C.3       1 <0>         0.0870
     14 C14         5.5937   -5.7970   -2.1205 C.3       1 <0>         0.2023
     15 C15         3.2228   -1.3678    1.8038 C.3       1 <0>         0.0778
     16 C16         5.3776   -7.2719   -1.7663 C.3       1 <0>        -0.0746
     17 C17         2.9444   -3.4881    3.2059 C.3       1 <0>        -0.0681
     18 C18         6.6521   -7.8917   -1.1998 C.3       1 <0>        -0.0944
     19 C19         3.7998   -4.5942    3.8264 C.3       1 <0>        -0.0918
     20 C20         5.7415   -1.0578   -1.6401 C.3       1 <0>        -0.1192
     21 C21         4.5564   -1.3488   -2.5679 C.3       1 <0>        -0.0916
     22 C22         6.8115   -0.2136   -2.3213 C.3       1 <0>         0.1883
     23 C23         3.4544   -2.1251   -1.8653 C.3       1 <0>         0.1952
     24 N1          4.3811   -5.2258   -2.6756 N.pl3     1 <0>        -0.7670
     25 N2          2.9741   -2.1051    0.5595 N.am      1 <0>        -0.4509
     26 N3          8.7668   -0.9088   -5.4795 N.pl3     1 <0>        -0.8477
     27 N4          8.7590    1.0053   -4.0334 N.pl3     1 <0>        -0.8633
     28 N5          7.3321   -0.8648   -3.5148 N.pl3     1 <0>        -0.7419
     29 N6          2.2741   -2.2179   -2.7432 N.pl3     1 <0>        -0.8860
     30 O1          1.9215   -0.0131    3.3555 O.2       1 <0>        -0.5199
     31 O2          2.5356   -0.2394   -0.7559 O.2       1 <0>        -0.6131
     32 O3          3.2466   -3.7694   -4.5546 O.2       1 <0>        -0.6576
     33 O4          0.7526   -3.5048   -4.3692 O.2       1 <0>        -0.6482
     34 O5          0.8975   -0.9928    1.5701 O.3       1 <0>        -0.6303
     35 S1          2.0591   -3.5786   -3.7438 S.o2      1 <0>         1.5193
     36 H1         -0.3683   -6.5110   -0.7364 H         1 <0>         0.1426
     37 H2          1.6316   -7.7594    0.0037 H         1 <0>         0.1398
     38 H3         -0.1396   -4.6708   -2.3946 H         1 <0>         0.1599
     39 H4          4.5163   -7.0048    0.2145 H         1 <0>         0.0574
     40 H5          3.9649   -8.4563   -0.6405 H         1 <0>         0.0629
     41 H6          1.1666   -3.5855    1.9944 H         1 <0>         0.0614
     42 H7          2.0785   -5.0851    1.9962 H         1 <0>         0.0593
     43 H8          4.8081   -2.5873    2.5693 H         1 <0>         0.0841
     44 H9          3.9682   -1.6833    3.8202 H         1 <0>         0.0679
     45 H10         3.8460   -3.9906    0.5720 H         1 <0>         0.0826
     46 H11         2.2519   -3.9401   -0.1848 H         1 <0>         0.0383
     47 H12         5.8905   -5.2266   -1.2316 H         1 <0>         0.0556
     48 H13         6.4019   -5.6981   -2.8538 H         1 <0>         0.0415
     49 H14         3.9207   -0.5495    1.5893 H         1 <0>         0.0851
     50 H15         5.1141   -7.8187   -2.6818 H         1 <0>         0.0639
     51 H16         2.1980   -3.2111    3.9613 H         1 <0>         0.0584
     52 H17         7.3989   -8.0232   -1.9884 H         1 <0>         0.0401
     53 H18         7.0798   -7.2498   -0.4238 H         1 <0>         0.0440
     54 H19         6.4404   -8.8706   -0.7592 H         1 <0>         0.0459
     55 H20         3.2622   -5.0822    4.6449 H         1 <0>         0.0456
     56 H21         4.0499   -5.3522    3.0782 H         1 <0>         0.0366
     57 H22         4.7318   -4.1818    4.2242 H         1 <0>         0.0474
     58 H23         5.3842   -0.5386   -0.7426 H         1 <0>         0.0800
     59 H24         6.1956   -2.0004   -1.3135 H         1 <0>         0.0681
     60 H25         4.9119   -1.8947   -3.4517 H         1 <0>         0.0740
     61 H26         4.1396   -0.4017   -2.9334 H         1 <0>         0.0631
     62 H27         7.6493   -0.0157   -1.6451 H         1 <0>         0.0970
     63 H28         6.3893    0.7487   -2.6278 H         1 <0>         0.0725
     64 H29         3.7703   -3.1244   -1.5692 H         1 <0>         0.0839
     65 H30         4.4419   -4.4093   -3.2714 H         1 <0>         0.4531
     66 H31         8.4501   -1.8373   -5.7457 H         1 <0>         0.4798
     67 H32         9.4595   -0.4648   -6.0779 H         1 <0>         0.4881
     68 H33         8.4274    1.5051   -3.2120 H         1 <0>         0.4801
     69 H34         9.4501    1.4677   -4.6194 H         1 <0>         0.4806
     70 H35         7.0024   -1.7969   -3.7700 H         1 <0>         0.4689
     71 H36         1.4502   -1.6870   -2.4414 H         1 <0>         0.4505
     72 H37         0.0762   -0.5760    1.9078 H         1 <0>         0.4443
@<TRIPOS>BOND
     1    1    2 ar
     2    1    3 ar
     3    2    4 ar
     4    3    6 ar
     5    4    5 ar
     6    4   10 1
     7    5    6 ar
     8    5   24 1
     9    6   35 1
    10    7   15 1
    11    7   30 2
    12    7   34 1
    13    8   23 1
    14    8   25 am
    15    8   31 2
    16    9   26 1
    17    9   27 1
    18    9   28 1
    19   10   16 1
    20   11   13 1
    21   11   17 1
    22   12   15 1
    23   12   17 1
    24   13   25 1
    25   14   16 1
    26   14   24 1
    27   15   25 1
    28   16   18 1
    29   17   19 1
    30   20   21 1
    31   20   22 1
    32   21   23 1
    33   22   28 1
    34   23   29 1
    35   29   35 1
    36   32   35 2
    37   33   35 2
    38    1   36 1
    39    2   37 1
    40    3   38 1
    41   10   39 1
    42   10   40 1
    43   11   41 1
    44   11   42 1
    45   12   43 1
    46   12   44 1
    47   13   45 1
    48   13   46 1
    49   14   47 1
    50   14   48 1
    51   15   49 1
    52   16   50 1
    53   17   51 1
    54   18   52 1
    55   18   53 1
    56   18   54 1
    57   19   55 1
    58   19   56 1
    59   19   57 1
    60   20   58 1
    61   20   59 1
    62   21   60 1
    63   21   61 1
    64   22   62 1
    65   22   63 1
    66   23   64 1
    67   24   65 1
    68   26   66 1
    69   26   67 1
    70   27   68 1
    71   27   69 1
    72   28   70 1
    73   29   71 1
    74   34   72 1
@<TRIPOS>MOLECULE
1dwc_ligand_303
   72    74     0     0     0
SMALL
USER_CHARGES

mmff94s_NoEstat = 81.48
@<TRIPOS>ATOM
      1 C1         -2.1552   -6.8769    3.3635 C.ar      1 <0>        -0.1945
      2 C2         -2.5157   -7.0906    2.0347 C.ar      1 <0>        -0.0294
      3 C3         -2.2108   -5.5938    3.8998 C.ar      1 <0>        -0.0143
      4 C4         -2.9386   -6.0198    1.2342 C.ar      1 <0>        -0.1552
      5 C5         -2.9700   -4.7133    1.7612 C.ar      1 <0>         0.3076
      6 C6         -2.6182   -4.5211    3.1051 C.ar      1 <0>        -0.4908
      7 C7          3.5686   -3.4379    3.7704 C.2       1 <0>         0.5994
      8 C8          0.8654   -1.4427    3.2413 C.2       1 <0>         0.6462
      9 C9          2.0746   -5.2044   -1.4852 C.cat     1 <0>         0.6305
     10 C10        -3.3185   -6.2686   -0.2059 C.3       1 <0>        -0.0319
     11 C11         3.4440   -0.0674    5.4719 C.3       1 <0>        -0.0918
     12 C12         3.1682   -2.4952    6.0163 C.3       1 <0>        -0.0841
     13 C13         2.9000   -0.3276    4.0730 C.3       1 <0>         0.0870
     14 C14        -3.5741   -3.7853   -0.4384 C.3       1 <0>         0.2023
     15 C15         2.5392   -2.7371    4.6417 C.3       1 <0>         0.0778
     16 C16        -4.2102   -5.1431   -0.7536 C.3       1 <0>        -0.0746
     17 C17         4.1435   -1.3104    6.0281 C.3       1 <0>        -0.0681
     18 C18        -4.4335   -5.3085   -2.2543 C.3       1 <0>        -0.0944
     19 C19         4.6673   -1.0527    7.4396 C.3       1 <0>        -0.0918
     20 C20         0.0249   -2.8727    0.7002 C.3       1 <0>        -0.1192
     21 C21         0.3004   -3.5693    2.0376 C.3       1 <0>        -0.0916
     22 C22         0.2602   -3.7963   -0.4886 C.3       1 <0>         0.1883
     23 C23        -0.0078   -2.6730    3.2260 C.3       1 <0>         0.1952
     24 N1         -3.3855   -3.6334    0.9920 N.pl3     1 <0>        -0.7670
     25 N2          2.0252   -1.5038    4.0223 N.am      1 <0>        -0.4509
     26 N3          3.3877   -5.6631   -1.4955 N.pl3     1 <0>        -0.8477
     27 N4          1.1890   -5.6621   -2.4548 N.pl3     1 <0>        -0.8633
     28 N5          1.6278   -4.2942   -0.5212 N.pl3     1 <0>        -0.7419
     29 N6         -1.3760   -2.1385    3.1042 N.pl3     1 <0>        -0.8860
     30 O1          4.4853   -4.1308    4.1865 O.2       1 <0>        -0.5199
     31 O2          0.5240   -0.4555    2.5844 O.2       1 <0>        -0.6131
     32 O3         -3.9192   -2.2979    3.4785 O.2       1 <0>        -0.6576
     33 O4         -2.3570   -3.1258    5.2669 O.2       1 <0>        -0.6482
     34 O5          3.3351   -3.1885    2.4588 O.3       1 <0>        -0.6303
     35 S1         -2.6746   -2.9347    3.8647 S.o2      1 <0>         1.5193
     36 H1         -1.8347   -7.7114    3.9810 H         1 <0>         0.1426
     37 H2         -2.4720   -8.0969    1.6249 H         1 <0>         0.1398
     38 H3         -1.9383   -5.4164    4.9353 H         1 <0>         0.1599
     39 H4         -2.3970   -6.3462   -0.7968 H         1 <0>         0.0574
     40 H5         -3.8526   -7.2228   -0.2920 H         1 <0>         0.0629
     41 H6          4.1435    0.7764    5.4419 H         1 <0>         0.0614
     42 H7          2.6191    0.2214    6.1357 H         1 <0>         0.0593
     43 H8          2.3618   -2.2928    6.7345 H         1 <0>         0.0841
     44 H9          3.6813   -3.3988    6.3690 H         1 <0>         0.0679
     45 H10         2.3679    0.5618    3.7197 H         1 <0>         0.0826
     46 H11         3.7232   -0.5081    3.3711 H         1 <0>         0.0383
     47 H12        -2.6062   -3.6862   -0.9454 H         1 <0>         0.0556
     48 H13        -4.2146   -2.9737   -0.8012 H         1 <0>         0.0415
     49 H14         1.7211   -3.4548    4.7590 H         1 <0>         0.0851
     50 H15        -5.1893   -5.1964   -0.2584 H         1 <0>         0.0639
     51 H16         5.0063   -1.5479    5.3937 H         1 <0>         0.0584
     52 H17        -5.2505   -4.6651   -2.5945 H         1 <0>         0.0401
     53 H18        -3.5296   -5.0402   -2.8094 H         1 <0>         0.0440
     54 H19        -4.6894   -6.3451   -2.4928 H         1 <0>         0.0459
     55 H20         4.2777   -1.8006    8.1367 H         1 <0>         0.0456
     56 H21         5.7602   -1.1000    7.4588 H         1 <0>         0.0366
     57 H22         4.3590   -0.0627    7.7891 H         1 <0>         0.0474
     58 H23        -1.0105   -2.5120    0.6824 H         1 <0>         0.0800
     59 H24         0.6776   -1.9980    0.5976 H         1 <0>         0.0681
     60 H25         1.3460   -3.9033    2.0652 H         1 <0>         0.0740
     61 H26        -0.3175   -4.4733    2.1109 H         1 <0>         0.0631
     62 H27         0.0590   -3.2831   -1.4342 H         1 <0>         0.0970
     63 H28        -0.4054   -4.6631   -0.4257 H         1 <0>         0.0725
     64 H29         0.1003   -3.1895    4.1787 H         1 <0>         0.0839
     65 H30        -3.3193   -2.7048    1.3903 H         1 <0>         0.4531
     66 H31         4.0702   -5.3548   -0.8082 H         1 <0>         0.4798
     67 H32         3.7046   -6.3246   -2.2006 H         1 <0>         0.4881
     68 H33         0.2221   -5.3473   -2.4765 H         1 <0>         0.4801
     69 H34         1.4849   -6.3248   -3.1675 H         1 <0>         0.4806
     70 H35         2.3012   -3.9765    0.1776 H         1 <0>         0.4689
     71 H36        -1.4476   -1.1318    2.9219 H         1 <0>         0.4505
     72 H37         3.9911   -3.6313    1.8792 H         1 <0>         0.4443
@<TRIPOS>BOND
     1    1    2 ar
     2    1    3 ar
     3    2    4 ar
     4    3    6 ar
     5    4    5 ar
     6    4   10 1
     7    5    6 ar
     8    5   24 1
     9    6   35 1
    10    7   15 1
    11    7   30 2
    12    7   34 1
    13    8   23 1
    14    8   25 am
    15    8   31 2
    16    9   26 1
    17    9   27 1
    18    9   28 1
    19   10   16 1
    20   11   13 1
    21   11   17 1
    22   12   15 1
    23   12   17 1
    24   13   25 1
    25   14   16 1
    26   14   24 1
    27   15   25 1
    28   16   18 1
    29   17   19 1
    30   20   21 1
    31   20   22 1
    32   21   23 1
    33   22   28 1
    34   23   29 1
    35   29   35 1
    36   32   35 2
    37   33   35 2
    38    1   36 1
    39    2   37 1
    40    3   38 1
    41   10   39 1
    42   10   40 1
    43   11   41 1
    44   11   42 1
    45   12   43 1
    46   12   44 1
    47   13   45 1
    48   13   46 1
    49   14   47 1
    50   14   48 1
    51   15   49 1
    52   16   50 1
    53   17   51 1
    54   18   52 1
    55   18   53 1
    56   18   54 1
    57   19   55 1
    58   19   56 1
    59   19   57 1
    60   20   58 1
    61   20   59 1
    62   21   60 1
    63   21   61 1
    64   22   62 1
    65   22   63 1
    66   23   64 1
    67   24   65 1
    68   26   66 1
    69   26   67 1
    70   27   68 1
    71   27   69 1
    72   28   70 1
    73   29   71 1
    74   34   72 1
@<TRIPOS>MOLECULE
1dwc_ligand_304
   72    74     0     0     0
SMALL
USER_CHARGES

mmff94s_NoEstat = 81.50
@<TRIPOS>ATOM
      1 C1         -2.2710   -1.6623    7.6435 C.ar      1 <0>        -0.1945
      2 C2         -1.5255   -2.6695    8.2527 C.ar      1 <0>        -0.0294
      3 C3         -2.6085   -1.7664    6.2973 C.ar      1 <0>        -0.0143
      4 C4         -1.1160   -3.7912    7.5176 C.ar      1 <0>        -0.1552
      5 C5         -1.4288   -3.8903    6.1472 C.ar      1 <0>         0.3076
      6 C6         -2.1929   -2.8737    5.5561 C.ar      1 <0>        -0.4908
      7 C7          0.7599    0.4439    6.0693 C.2       1 <0>         0.5994
      8 C8          0.8654   -1.4427    3.2413 C.2       1 <0>         0.6462
      9 C9          1.3456   -6.9412   -0.3642 C.cat     1 <0>         0.6305
     10 C10        -0.3024   -4.8697    8.1922 C.3       1 <0>        -0.0319
     11 C11         3.4513   -2.1874    5.7463 C.3       1 <0>        -0.0918
     12 C12         3.1844    0.2989    5.6288 C.3       1 <0>        -0.0841
     13 C13         2.0362   -2.3566    5.2082 C.3       1 <0>         0.0870
     14 C14        -0.0979   -5.9519    5.9398 C.3       1 <0>         0.2023
     15 C15         1.7971    0.1255    5.0050 C.3       1 <0>         0.0778
     16 C16        -0.3856   -6.1984    7.4244 C.3       1 <0>        -0.0746
     17 C17         3.5879   -0.8778    6.5274 C.3       1 <0>        -0.0681
     18 C18         0.5827   -7.2241    8.0072 C.3       1 <0>        -0.0944
     19 C19         5.0139   -0.7010    7.0456 C.3       1 <0>        -0.0918
     20 C20         1.7689   -4.0083    2.0091 C.3       1 <0>        -0.1192
     21 C21         0.3004   -3.5693    2.0376 C.3       1 <0>        -0.0916
     22 C22         2.0958   -4.8429    0.7769 C.3       1 <0>         0.1883
     23 C23        -0.0078   -2.6730    3.2260 C.3       1 <0>         0.1952
     24 N1         -1.0371   -4.9903    5.3941 N.pl3     1 <0>        -0.7670
     25 N2          1.5999   -1.2067    4.4091 N.am      1 <0>        -0.4509
     26 N3          0.5495   -8.0810   -0.4079 N.pl3     1 <0>        -0.8477
     27 N4          2.2318   -6.6929   -1.4069 N.pl3     1 <0>        -0.8633
     28 N5          1.2730   -6.0418    0.7049 N.pl3     1 <0>        -0.7419
     29 N6         -1.3760   -2.1385    3.1042 N.pl3     1 <0>        -0.8860
     30 O1          0.2188   -0.3807    6.7908 O.2       1 <0>        -0.5199
     31 O2          0.8891   -0.7105    2.2483 O.2       1 <0>        -0.6131
     32 O3         -2.6902   -4.3257    3.4539 O.2       1 <0>        -0.6576
     33 O4         -3.8691   -2.1223    3.7357 O.2       1 <0>        -0.6482
     34 O5          0.5101    1.7754    6.1111 O.3       1 <0>        -0.6303
     35 S1         -2.6746   -2.9347    3.8647 S.o2      1 <0>         1.5193
     36 H1         -2.5913   -0.7986    8.2197 H         1 <0>         0.1426
     37 H2         -1.2690   -2.5812    9.3057 H         1 <0>         0.1398
     38 H3         -3.1940   -0.9909    5.8138 H         1 <0>         0.1599
     39 H4          0.7390   -4.5290    8.2522 H         1 <0>         0.0574
     40 H5         -0.6633   -5.0246    9.2164 H         1 <0>         0.0629
     41 H6          3.7023   -3.0381    6.3909 H         1 <0>         0.0614
     42 H7          4.1624   -2.1957    4.9103 H         1 <0>         0.0593
     43 H8          3.9195    0.3885    4.8172 H         1 <0>         0.0841
     44 H9          3.2348    1.2341    6.2008 H         1 <0>         0.0679
     45 H10         1.9804   -3.2772    4.6181 H         1 <0>         0.0826
     46 H11         1.3238   -2.4627    6.0353 H         1 <0>         0.0383
     47 H12         0.9249   -5.5797    5.8021 H         1 <0>         0.0556
     48 H13        -0.1803   -6.8886    5.3775 H         1 <0>         0.0415
     49 H14         1.6678    0.8925    4.2348 H         1 <0>         0.0851
     50 H15        -1.4032   -6.5999    7.5237 H         1 <0>         0.0639
     51 H16         2.9216   -0.9109    7.3982 H         1 <0>         0.0584
     52 H17         0.3544   -8.2256    7.6305 H         1 <0>         0.0401
     53 H18         1.6132   -6.9794    7.7327 H         1 <0>         0.0440
     54 H19         0.5120   -7.2425    9.0989 H         1 <0>         0.0459
     55 H20         5.4291    0.2540    6.7098 H         1 <0>         0.0456
     56 H21         5.0304   -0.7183    8.1394 H         1 <0>         0.0366
     57 H22         5.6586   -1.5050    6.6784 H         1 <0>         0.0474
     58 H23         2.4156   -3.1229    2.0318 H         1 <0>         0.0800
     59 H24         1.9949   -4.6013    2.9028 H         1 <0>         0.0681
     60 H25        -0.3448   -4.4577    2.0448 H         1 <0>         0.0740
     61 H26         0.0666   -3.0218    1.1158 H         1 <0>         0.0631
     62 H27         3.1472   -5.1474    0.7729 H         1 <0>         0.0970
     63 H28         1.9091   -4.2592   -0.1301 H         1 <0>         0.0725
     64 H29         0.1003   -3.1895    4.1787 H         1 <0>         0.0839
     65 H30        -1.2193   -4.9813    4.3981 H         1 <0>         0.4531
     66 H31        -0.1107   -8.3043    0.3321 H         1 <0>         0.4798
     67 H32         0.6091   -8.7303   -1.1889 H         1 <0>         0.4881
     68 H33         2.8285   -5.8692   -1.4068 H         1 <0>         0.4801
     69 H34         2.3056   -7.3283   -2.1978 H         1 <0>         0.4806
     70 H35         0.6129   -6.2511    1.4553 H         1 <0>         0.4689
     71 H36        -1.4476   -1.1318    2.9219 H         1 <0>         0.4505
     72 H37        -0.1593    2.0014    6.7917 H         1 <0>         0.4443
@<TRIPOS>BOND
     1    1    2 ar
     2    1    3 ar
     3    2    4 ar
     4    3    6 ar
     5    4    5 ar
     6    4   10 1
     7    5    6 ar
     8    5   24 1
     9    6   35 1
    10    7   15 1
    11    7   30 2
    12    7   34 1
    13    8   23 1
    14    8   25 am
    15    8   31 2
    16    9   26 1
    17    9   27 1
    18    9   28 1
    19   10   16 1
    20   11   13 1
    21   11   17 1
    22   12   15 1
    23   12   17 1
    24   13   25 1
    25   14   16 1
    26   14   24 1
    27   15   25 1
    28   16   18 1
    29   17   19 1
    30   20   21 1
    31   20   22 1
    32   21   23 1
    33   22   28 1
    34   23   29 1
    35   29   35 1
    36   32   35 2
    37   33   35 2
    38    1   36 1
    39    2   37 1
    40    3   38 1
    41   10   39 1
    42   10   40 1
    43   11   41 1
    44   11   42 1
    45   12   43 1
    46   12   44 1
    47   13   45 1
    48   13   46 1
    49   14   47 1
    50   14   48 1
    51   15   49 1
    52   16   50 1
    53   17   51 1
    54   18   52 1
    55   18   53 1
    56   18   54 1
    57   19   55 1
    58   19   56 1
    59   19   57 1
    60   20   58 1
    61   20   59 1
    62   21   60 1
    63   21   61 1
    64   22   62 1
    65   22   63 1
    66   23   64 1
    67   24   65 1
    68   26   66 1
    69   26   67 1
    70   27   68 1
    71   27   69 1
    72   28   70 1
    73   29   71 1
    74   34   72 1
@<TRIPOS>MOLECULE
1dwc_ligand_305
   72    74     0     0     0
SMALL
USER_CHARGES

mmff94s_NoEstat = 81.50
@<TRIPOS>ATOM
      1 C1          4.8644   -5.7586   -5.2162 C.ar      1 <0>        -0.1945
      2 C2          4.8163   -6.9783   -4.5445 C.ar      1 <0>        -0.0294
      3 C3          5.2154   -4.6012   -4.5279 C.ar      1 <0>        -0.0143
      4 C4          5.1159   -7.0467   -3.1762 C.ar      1 <0>        -0.1552
      5 C5          5.4999   -5.8846   -2.4788 C.ar      1 <0>         0.3076
      6 C6          5.5274   -4.6639   -3.1687 C.ar      1 <0>        -0.4908
      7 C7          3.6135    0.1593    2.1008 C.2       1 <0>         0.5994
      8 C8          2.9466   -1.3973   -0.6457 C.2       1 <0>         0.6462
      9 C9         -0.2536   -7.2081   -1.3618 C.cat     1 <0>         0.6305
     10 C10         5.0662   -8.3791   -2.4677 C.3       1 <0>        -0.0319
     11 C11         5.5437    1.3083   -0.3397 C.3       1 <0>        -0.0918
     12 C12         3.3133    2.1108    0.6168 C.3       1 <0>        -0.0841
     13 C13         4.6073    0.4410   -1.1741 C.3       1 <0>         0.0870
     14 C14         5.9569   -7.1911   -0.4406 C.3       1 <0>         0.2023
     15 C15         3.0358    0.6175    0.7719 C.3       1 <0>         0.0778
     16 C16         4.9491   -8.2311   -0.9420 C.3       1 <0>        -0.0746
     17 C17         4.8054    2.4280    0.4117 C.3       1 <0>        -0.0681
     18 C18         3.5177   -7.8948   -0.5083 C.3       1 <0>        -0.0944
     19 C19         4.9662    3.7744   -0.2964 C.3       1 <0>        -0.0918
     20 C20         2.0376   -4.1819   -1.4375 C.3       1 <0>        -0.1192
     21 C21         2.4114   -3.0756   -2.4306 C.3       1 <0>        -0.0916
     22 C22         1.0502   -5.1786   -2.0318 C.3       1 <0>         0.1883
     23 C23         3.4544   -2.1251   -1.8653 C.3       1 <0>         0.1952
     24 N1          5.7951   -5.9205   -1.1218 N.pl3     1 <0>        -0.7670
     25 N2          3.5421   -0.1648   -0.3619 N.am      1 <0>        -0.4509
     26 N3         -0.5855   -8.1838   -0.4275 N.pl3     1 <0>        -0.8477
     27 N4         -0.8674   -7.2277   -2.6095 N.pl3     1 <0>        -0.8633
     28 N5          0.6828   -6.2099   -1.0722 N.pl3     1 <0>        -0.7419
     29 N6          4.6097   -2.8934   -1.3678 N.pl3     1 <0>        -0.8860
     30 O1          3.3259    0.6306    3.1909 O.2       1 <0>        -0.5199
     31 O2          2.0528   -1.9046    0.0367 O.2       1 <0>        -0.6131
     32 O3          7.1283   -3.4000   -1.5517 O.2       1 <0>        -0.6576
     33 O4          5.9896   -2.1297   -3.3994 O.2       1 <0>        -0.6482
     34 O5          4.5002   -0.8490    1.9151 O.3       1 <0>        -0.6303
     35 S1          5.9585   -3.1544   -2.3734 S.o2      1 <0>         1.5193
     36 H1          4.6251   -5.7105   -6.2751 H         1 <0>         0.1426
     37 H2          4.5383   -7.8771   -5.0897 H         1 <0>         0.1398
     38 H3          5.2504   -3.6444   -5.0393 H         1 <0>         0.1599
     39 H4          4.2273   -8.9773   -2.8439 H         1 <0>         0.0574
     40 H5          5.9911   -8.9191   -2.7076 H         1 <0>         0.0629
     41 H6          6.0425    0.6652    0.3976 H         1 <0>         0.0614
     42 H7          6.3377    1.7214   -0.9727 H         1 <0>         0.0593
     43 H8          2.7432    2.4779   -0.2478 H         1 <0>         0.0841
     44 H9          2.9432    2.6669    1.4876 H         1 <0>         0.0679
     45 H10         4.1201    1.0372   -1.9545 H         1 <0>         0.0826
     46 H11         5.1818   -0.3450   -1.6740 H         1 <0>         0.0383
     47 H12         5.8438   -7.0394    0.6386 H         1 <0>         0.0556
     48 H13         6.9779   -7.5557   -0.6081 H         1 <0>         0.0415
     49 H14         1.9534    0.4590    0.8478 H         1 <0>         0.0851
     50 H15         5.1909   -9.1986   -0.4850 H         1 <0>         0.0639
     51 H16         5.2803    2.5350    1.3953 H         1 <0>         0.0584
     52 H17         2.8884   -7.6961   -1.3810 H         1 <0>         0.0401
     53 H18         3.0795   -8.7273    0.0501 H         1 <0>         0.0440
     54 H19         3.5086   -7.0076    0.1320 H         1 <0>         0.0459
     55 H20         5.9624    4.1882   -0.1137 H         1 <0>         0.0456
     56 H21         4.8337    3.6592   -1.3763 H         1 <0>         0.0366
     57 H22         4.2237    4.4910    0.0673 H         1 <0>         0.0474
     58 H23         2.9446   -4.7113   -1.1217 H         1 <0>         0.0800
     59 H24         1.5893   -3.7381   -0.5411 H         1 <0>         0.0681
     60 H25         1.5058   -2.5277   -2.7226 H         1 <0>         0.0740
     61 H26         2.8104   -3.5289   -3.3468 H         1 <0>         0.0631
     62 H27         1.4667   -5.6672   -2.9184 H         1 <0>         0.0970
     63 H28         0.1320   -4.6626   -2.3297 H         1 <0>         0.0725
     64 H29         3.7902   -1.3903   -2.5956 H         1 <0>         0.0839
     65 H30         6.1384   -5.0748   -0.6832 H         1 <0>         0.4531
     66 H31        -0.1613   -8.2101    0.4959 H         1 <0>         0.4798
     67 H32        -1.2672   -8.9065   -0.6465 H         1 <0>         0.4881
     68 H33        -0.6480   -6.5297   -3.3160 H         1 <0>         0.4801
     69 H34        -1.5528   -7.9404   -2.8480 H         1 <0>         0.4806
     70 H35         1.1164   -6.2217   -0.1478 H         1 <0>         0.4689
     71 H36         4.7395   -2.8961   -0.3505 H         1 <0>         0.4505
     72 H37         4.8863   -1.1580    2.7624 H         1 <0>         0.4443
@<TRIPOS>BOND
     1    1    2 ar
     2    1    3 ar
     3    2    4 ar
     4    3    6 ar
     5    4    5 ar
     6    4   10 1
     7    5    6 ar
     8    5   24 1
     9    6   35 1
    10    7   15 1
    11    7   30 2
    12    7   34 1
    13    8   23 1
    14    8   25 am
    15    8   31 2
    16    9   26 1
    17    9   27 1
    18    9   28 1
    19   10   16 1
    20   11   13 1
    21   11   17 1
    22   12   15 1
    23   12   17 1
    24   13   25 1
    25   14   16 1
    26   14   24 1
    27   15   25 1
    28   16   18 1
    29   17   19 1
    30   20   21 1
    31   20   22 1
    32   21   23 1
    33   22   28 1
    34   23   29 1
    35   29   35 1
    36   32   35 2
    37   33   35 2
    38    1   36 1
    39    2   37 1
    40    3   38 1
    41   10   39 1
    42   10   40 1
    43   11   41 1
    44   11   42 1
    45   12   43 1
    46   12   44 1
    47   13   45 1
    48   13   46 1
    49   14   47 1
    50   14   48 1
    51   15   49 1
    52   16   50 1
    53   17   51 1
    54   18   52 1
    55   18   53 1
    56   18   54 1
    57   19   55 1
    58   19   56 1
    59   19   57 1
    60   20   58 1
    61   20   59 1
    62   21   60 1
    63   21   61 1
    64   22   62 1
    65   22   63 1
    66   23   64 1
    67   24   65 1
    68   26   66 1
    69   26   67 1
    70   27   68 1
    71   27   69 1
    72   28   70 1
    73   29   71 1
    74   34   72 1
@<TRIPOS>MOLECULE
1dwc_ligand_306
   72    74     0     0     0
SMALL
USER_CHARGES

mmff94s_NoEstat = 81.53
@<TRIPOS>ATOM
      1 C1         -2.2710   -1.6623    7.6435 C.ar      1 <0>        -0.1945
      2 C2         -1.5255   -2.6695    8.2527 C.ar      1 <0>        -0.0294
      3 C3         -2.6085   -1.7664    6.2973 C.ar      1 <0>        -0.0143
      4 C4         -1.1160   -3.7912    7.5176 C.ar      1 <0>        -0.1552
      5 C5         -1.4288   -3.8903    6.1472 C.ar      1 <0>         0.3076
      6 C6         -2.1929   -2.8737    5.5561 C.ar      1 <0>        -0.4908
      7 C7          2.9762   -3.0374    5.3790 C.2       1 <0>         0.5994
      8 C8          0.8654   -1.4427    3.2413 C.2       1 <0>         0.6462
      9 C9          1.3456   -6.9412   -0.3642 C.cat     1 <0>         0.6305
     10 C10        -0.3024   -4.8697    8.1922 C.3       1 <0>        -0.0319
     11 C11         2.4006    0.6688    5.8299 C.3       1 <0>        -0.0918
     12 C12         1.7620   -1.5078    6.8886 C.3       1 <0>        -0.0841
     13 C13         2.4565   -0.0177    4.4711 C.3       1 <0>         0.0870
     14 C14        -0.0979   -5.9519    5.9398 C.3       1 <0>         0.2023
     15 C15         1.7319   -2.1748    5.5110 C.3       1 <0>         0.0778
     16 C16        -0.3856   -6.1984    7.4244 C.3       1 <0>        -0.0746
     17 C17         2.7265   -0.3161    6.9557 C.3       1 <0>        -0.0681
     18 C18         0.5827   -7.2241    8.0072 C.3       1 <0>        -0.0944
     19 C19         2.6468    0.3706    8.3178 C.3       1 <0>        -0.0918
     20 C20         1.7689   -4.0083    2.0091 C.3       1 <0>        -0.1192
     21 C21         0.3004   -3.5693    2.0376 C.3       1 <0>        -0.0916
     22 C22         2.0958   -4.8429    0.7769 C.3       1 <0>         0.1883
     23 C23        -0.0078   -2.6730    3.2260 C.3       1 <0>         0.1952
     24 N1         -1.0371   -4.9903    5.3941 N.pl3     1 <0>        -0.7670
     25 N2          1.5999   -1.2067    4.4091 N.am      1 <0>        -0.4509
     26 N3          0.5495   -8.0810   -0.4079 N.pl3     1 <0>        -0.8477
     27 N4          2.2318   -6.6929   -1.4069 N.pl3     1 <0>        -0.8633
     28 N5          1.2730   -6.0418    0.7049 N.pl3     1 <0>        -0.7419
     29 N6         -1.3760   -2.1385    3.1042 N.pl3     1 <0>        -0.8860
     30 O1          4.0250   -2.6820    4.8621 O.2       1 <0>        -0.5199
     31 O2          0.8891   -0.7105    2.2483 O.2       1 <0>        -0.6131
     32 O3         -2.6902   -4.3257    3.4539 O.2       1 <0>        -0.6576
     33 O4         -3.8691   -2.1223    3.7357 O.2       1 <0>        -0.6482
     34 O5          2.7663   -4.2654    5.9130 O.3       1 <0>        -0.6303
     35 S1         -2.6746   -2.9347    3.8647 S.o2      1 <0>         1.5193
     36 H1         -2.5913   -0.7986    8.2197 H         1 <0>         0.1426
     37 H2         -1.2690   -2.5812    9.3057 H         1 <0>         0.1398
     38 H3         -3.1940   -0.9909    5.8138 H         1 <0>         0.1599
     39 H4          0.7390   -4.5290    8.2522 H         1 <0>         0.0574
     40 H5         -0.6633   -5.0246    9.2164 H         1 <0>         0.0629
     41 H6          3.1075    1.5068    5.8464 H         1 <0>         0.0614
     42 H7          1.3987    1.0896    5.9845 H         1 <0>         0.0593
     43 H8          0.7490   -1.1528    7.1229 H         1 <0>         0.0841
     44 H9          2.0241   -2.2386    7.6642 H         1 <0>         0.0679
     45 H10         2.1762    0.6981    3.6915 H         1 <0>         0.0826
     46 H11         3.4796   -0.3461    4.2516 H         1 <0>         0.0383
     47 H12         0.9249   -5.5797    5.8021 H         1 <0>         0.0556
     48 H13        -0.1803   -6.8886    5.3775 H         1 <0>         0.0415
     49 H14         0.8899   -2.8738    5.4853 H         1 <0>         0.0851
     50 H15        -1.4032   -6.5999    7.5237 H         1 <0>         0.0639
     51 H16         3.7543   -0.6771    6.8272 H         1 <0>         0.0584
     52 H17         0.3544   -8.2256    7.6305 H         1 <0>         0.0401
     53 H18         1.6132   -6.9794    7.7327 H         1 <0>         0.0440
     54 H19         0.5120   -7.2425    9.0989 H         1 <0>         0.0459
     55 H20         1.9573   -0.1639    8.9779 H         1 <0>         0.0456
     56 H21         3.6313    0.3946    8.7945 H         1 <0>         0.0366
     57 H22         2.2914    1.3997    8.2091 H         1 <0>         0.0474
     58 H23         2.4156   -3.1229    2.0318 H         1 <0>         0.0800
     59 H24         1.9949   -4.6013    2.9028 H         1 <0>         0.0681
     60 H25        -0.3448   -4.4577    2.0448 H         1 <0>         0.0740
     61 H26         0.0666   -3.0218    1.1158 H         1 <0>         0.0631
     62 H27         3.1472   -5.1474    0.7729 H         1 <0>         0.0970
     63 H28         1.9091   -4.2592   -0.1301 H         1 <0>         0.0725
     64 H29         0.1003   -3.1895    4.1787 H         1 <0>         0.0839
     65 H30        -1.2193   -4.9813    4.3981 H         1 <0>         0.4531
     66 H31        -0.1107   -8.3043    0.3321 H         1 <0>         0.4798
     67 H32         0.6091   -8.7303   -1.1889 H         1 <0>         0.4881
     68 H33         2.8285   -5.8692   -1.4068 H         1 <0>         0.4801
     69 H34         2.3056   -7.3283   -2.1978 H         1 <0>         0.4806
     70 H35         0.6129   -6.2511    1.4553 H         1 <0>         0.4689
     71 H36        -1.4476   -1.1318    2.9219 H         1 <0>         0.4505
     72 H37         3.5585   -4.8388    5.8359 H         1 <0>         0.4443
@<TRIPOS>BOND
     1    1    2 ar
     2    1    3 ar
     3    2    4 ar
     4    3    6 ar
     5    4    5 ar
     6    4   10 1
     7    5    6 ar
     8    5   24 1
     9    6   35 1
    10    7   15 1
    11    7   30 2
    12    7   34 1
    13    8   23 1
    14    8   25 am
    15    8   31 2
    16    9   26 1
    17    9   27 1
    18    9   28 1
    19   10   16 1
    20   11   13 1
    21   11   17 1
    22   12   15 1
    23   12   17 1
    24   13   25 1
    25   14   16 1
    26   14   24 1
    27   15   25 1
    28   16   18 1
    29   17   19 1
    30   20   21 1
    31   20   22 1
    32   21   23 1
    33   22   28 1
    34   23   29 1
    35   29   35 1
    36   32   35 2
    37   33   35 2
    38    1   36 1
    39    2   37 1
    40    3   38 1
    41   10   39 1
    42   10   40 1
    43   11   41 1
    44   11   42 1
    45   12   43 1
    46   12   44 1
    47   13   45 1
    48   13   46 1
    49   14   47 1
    50   14   48 1
    51   15   49 1
    52   16   50 1
    53   17   51 1
    54   18   52 1
    55   18   53 1
    56   18   54 1
    57   19   55 1
    58   19   56 1
    59   19   57 1
    60   20   58 1
    61   20   59 1
    62   21   60 1
    63   21   61 1
    64   22   62 1
    65   22   63 1
    66   23   64 1
    67   24   65 1
    68   26   66 1
    69   26   67 1
    70   27   68 1
    71   27   69 1
    72   28   70 1
    73   29   71 1
    74   34   72 1
@<TRIPOS>MOLECULE
1dwc_ligand_307
   72    74     0     0     0
SMALL
USER_CHARGES

mmff94s_NoEstat = 81.54
@<TRIPOS>ATOM
      1 C1         -0.5523    1.6744    5.9041 C.ar      1 <0>        -0.1945
      2 C2         -0.9694    2.6552    5.0066 C.ar      1 <0>        -0.0294
      3 C3         -0.9569    0.3546    5.7269 C.ar      1 <0>        -0.0143
      4 C4         -1.7923    2.3195    3.9220 C.ar      1 <0>        -0.1552
      5 C5         -2.2299    0.9909    3.7521 C.ar      1 <0>         0.3076
      6 C6         -1.7869    0.0155    4.6571 C.ar      1 <0>        -0.4908
      7 C7          2.9525   -3.7210    4.6633 C.2       1 <0>         0.5994
      8 C8          0.8654   -1.4427    3.2413 C.2       1 <0>         0.6462
      9 C9          1.4604   -6.7192    4.6765 C.cat     1 <0>         0.6305
     10 C10        -2.2407    3.3967    2.9635 C.3       1 <0>        -0.0319
     11 C11         3.8997   -0.0663    4.7953 C.3       1 <0>        -0.0918
     12 C12         3.0155   -1.8674    6.2922 C.3       1 <0>        -0.0841
     13 C13         3.1900   -0.7124    3.6122 C.3       1 <0>         0.0870
     14 C14        -3.6561    1.6489    1.8554 C.3       1 <0>         0.2023
     15 C15         2.2314   -2.4635    5.1202 C.3       1 <0>         0.0778
     16 C16        -2.6763    2.8021    1.6150 C.3       1 <0>        -0.0746
     17 C17         4.2756   -1.1130    5.8473 C.3       1 <0>        -0.0681
     18 C18        -3.2993    3.8738    0.7246 C.3       1 <0>        -0.0944
     19 C19         4.9663   -0.4582    7.0420 C.3       1 <0>        -0.0918
     20 C20        -0.5404   -4.8511    2.0458 C.3       1 <0>        -0.1192
     21 C21         0.3004   -3.5693    2.0376 C.3       1 <0>        -0.0916
     22 C22        -0.3597   -5.6492    3.3311 C.3       1 <0>         0.1883
     23 C23        -0.0078   -2.6730    3.2260 C.3       1 <0>         0.1952
     24 N1         -3.0449    0.6290    2.6865 N.pl3     1 <0>        -0.7670
     25 N2          2.0252   -1.5038    4.0223 N.am      1 <0>        -0.4509
     26 N3          2.7946   -7.0727    4.8490 N.pl3     1 <0>        -0.8477
     27 N4          0.5364   -7.0602    5.6583 N.pl3     1 <0>        -0.8633
     28 N5          1.0303   -6.0293    3.5380 N.pl3     1 <0>        -0.7419
     29 N6         -1.3760   -2.1385    3.1042 N.pl3     1 <0>        -0.8860
     30 O1          3.2285   -4.6714    5.3802 O.2       1 <0>        -0.5199
     31 O2          0.5240   -0.4555    2.5844 O.2       1 <0>        -0.6131
     32 O3         -1.7140   -2.3916    5.6449 O.2       1 <0>        -0.6576
     33 O4         -3.6601   -1.7094    4.2056 O.2       1 <0>        -0.6482
     34 O5          3.2541   -3.6472    3.3439 O.3       1 <0>        -0.6303
     35 S1         -2.2397   -1.6774    4.4970 S.o2      1 <0>         1.5193
     36 H1          0.0908    1.9391    6.7389 H         1 <0>         0.1426
     37 H2         -0.6459    3.6833    5.1512 H         1 <0>         0.1398
     38 H3         -0.6333   -0.4189    6.4161 H         1 <0>         0.1599
     39 H4         -3.0724    3.9441    3.4249 H         1 <0>         0.0574
     40 H5         -1.4243    4.1094    2.7937 H         1 <0>         0.0629
     41 H6          4.7987    0.4538    4.4437 H         1 <0>         0.0614
     42 H7          3.2442    0.6909    5.2441 H         1 <0>         0.0593
     43 H8          2.3586   -1.1679    6.8273 H         1 <0>         0.0841
     44 H9          3.2888   -2.6509    7.0104 H         1 <0>         0.0679
     45 H10         2.8945    0.0639    2.8988 H         1 <0>         0.0826
     46 H11         3.8704   -1.3909    3.0835 H         1 <0>         0.0383
     47 H12        -4.5696    2.0142    2.3409 H         1 <0>         0.0556
     48 H13        -3.9536    1.1996    0.9014 H         1 <0>         0.0415
     49 H14         1.2607   -2.8048    5.4936 H         1 <0>         0.0851
     50 H15        -1.7894    2.4087    1.1001 H         1 <0>         0.0639
     51 H16         4.9839   -1.8245    5.4052 H         1 <0>         0.0584
     52 H17        -3.3831    3.5161   -0.3060 H         1 <0>         0.0401
     53 H18        -4.3001    4.1356    1.0809 H         1 <0>         0.0440
     54 H19        -2.6852    4.7793    0.7260 H         1 <0>         0.0459
     55 H20         4.4464   -0.7091    7.9715 H         1 <0>         0.0456
     56 H21         6.0020   -0.8015    7.1231 H         1 <0>         0.0366
     57 H22         4.9717    0.6305    6.9335 H         1 <0>         0.0474
     58 H23        -1.5993   -4.5943    1.9218 H         1 <0>         0.0800
     59 H24        -0.2563   -5.4850    1.1980 H         1 <0>         0.0681
     60 H25         0.1357   -3.0322    1.0943 H         1 <0>         0.0740
     61 H26         1.3654   -3.8328    2.0643 H         1 <0>         0.0631
     62 H27        -0.9667   -6.5601    3.3198 H         1 <0>         0.0970
     63 H28        -0.6690   -5.0471    4.1914 H         1 <0>         0.0725
     64 H29         0.1003   -3.1895    4.1787 H         1 <0>         0.0839
     65 H30        -3.3945   -0.3205    2.6487 H         1 <0>         0.4531
     66 H31         3.5044   -6.8463    4.1574 H         1 <0>         0.4798
     67 H32         3.0989   -7.5750    5.6798 H         1 <0>         0.4881
     68 H33        -0.4468   -6.8174    5.5641 H         1 <0>         0.4801
     69 H34         0.8200   -7.5607    6.4972 H         1 <0>         0.4806
     70 H35         1.7319   -5.7928    2.8348 H         1 <0>         0.4689
     71 H36        -1.6042   -1.6955    2.2078 H         1 <0>         0.4505
     72 H37         3.7223   -4.4500    3.0297 H         1 <0>         0.4443
@<TRIPOS>BOND
     1    1    2 ar
     2    1    3 ar
     3    2    4 ar
     4    3    6 ar
     5    4    5 ar
     6    4   10 1
     7    5    6 ar
     8    5   24 1
     9    6   35 1
    10    7   15 1
    11    7   30 2
    12    7   34 1
    13    8   23 1
    14    8   25 am
    15    8   31 2
    16    9   26 1
    17    9   27 1
    18    9   28 1
    19   10   16 1
    20   11   13 1
    21   11   17 1
    22   12   15 1
    23   12   17 1
    24   13   25 1
    25   14   16 1
    26   14   24 1
    27   15   25 1
    28   16   18 1
    29   17   19 1
    30   20   21 1
    31   20   22 1
    32   21   23 1
    33   22   28 1
    34   23   29 1
    35   29   35 1
    36   32   35 2
    37   33   35 2
    38    1   36 1
    39    2   37 1
    40    3   38 1
    41   10   39 1
    42   10   40 1
    43   11   41 1
    44   11   42 1
    45   12   43 1
    46   12   44 1
    47   13   45 1
    48   13   46 1
    49   14   47 1
    50   14   48 1
    51   15   49 1
    52   16   50 1
    53   17   51 1
    54   18   52 1
    55   18   53 1
    56   18   54 1
    57   19   55 1
    58   19   56 1
    59   19   57 1
    60   20   58 1
    61   20   59 1
    62   21   60 1
    63   21   61 1
    64   22   62 1
    65   22   63 1
    66   23   64 1
    67   24   65 1
    68   26   66 1
    69   26   67 1
    70   27   68 1
    71   27   69 1
    72   28   70 1
    73   29   71 1
    74   34   72 1
@<TRIPOS>MOLECULE
1dwc_ligand_308
   72    74     0     0     0
SMALL
USER_CHARGES

mmff94s_NoEstat = 81.55
@<TRIPOS>ATOM
      1 C1          3.3055   -6.8449   -1.9341 C.ar      1 <0>        -0.1945
      2 C2          3.8095   -7.1580   -3.1947 C.ar      1 <0>        -0.0294
      3 C3          2.5030   -5.7201   -1.7675 C.ar      1 <0>        -0.0143
      4 C4          3.5095   -6.3479   -4.2992 C.ar      1 <0>        -0.1552
      5 C5          2.7217   -5.1914   -4.1335 C.ar      1 <0>         0.3076
      6 C6          2.2111   -4.9017   -2.8599 C.ar      1 <0>        -0.4908
      7 C7          1.8102   -1.5505    2.3702 C.2       1 <0>         0.5994
      8 C8          2.9466   -1.3973   -0.6457 C.2       1 <0>         0.6462
      9 C9          7.6218    1.0157   -3.5686 C.cat     1 <0>         0.6305
     10 C10         4.0704   -6.6982   -5.6567 C.3       1 <0>        -0.0319
     11 C11         4.4920   -3.4807    2.0801 C.3       1 <0>        -0.0918
     12 C12         4.1798   -1.0721    2.8769 C.3       1 <0>        -0.0841
     13 C13         4.5658   -2.7774    0.7291 C.3       1 <0>         0.0870
     14 C14         3.0733   -4.5524   -6.4856 C.3       1 <0>         0.2023
     15 C15         3.1125   -1.0286    1.7861 C.3       1 <0>         0.0778
     16 C16         3.2586   -6.0435   -6.7854 C.3       1 <0>        -0.0746
     17 C17         4.5869   -2.5050    3.2643 C.3       1 <0>        -0.0681
     18 C18         3.9400   -6.2504   -8.1353 C.3       1 <0>        -0.0944
     19 C19         5.9882   -2.5079    3.8779 C.3       1 <0>        -0.0918
     20 C20         4.0666    0.0061   -3.0917 C.3       1 <0>        -0.1192
     21 C21         4.5564   -1.3488   -2.5679 C.3       1 <0>        -0.0916
     22 C22         5.1498    0.7503   -3.8628 C.3       1 <0>         0.1883
     23 C23         3.4544   -2.1251   -1.8653 C.3       1 <0>         0.1952
     24 N1          2.4075   -4.3705   -5.2096 N.pl3     1 <0>        -0.7670
     25 N2          3.5192   -1.7560    0.5781 N.am      1 <0>        -0.4509
     26 N3          8.7298    1.2510   -2.7611 N.pl3     1 <0>        -0.8477
     27 N4          7.8086    0.7999   -4.9297 N.pl3     1 <0>        -0.8633
     28 N5          6.3266    0.9918   -3.0404 N.pl3     1 <0>        -0.7419
     29 N6          2.2741   -2.2179   -2.7432 N.pl3     1 <0>        -0.8860
     30 O1          1.2492   -1.0925    3.3546 O.2       1 <0>        -0.5199
     31 O2          2.0685   -0.5400   -0.7710 O.2       1 <0>        -0.6131
     32 O3          0.1927   -3.4494   -3.6292 O.2       1 <0>        -0.6576
     33 O4          0.7527   -3.5815   -1.1810 O.2       1 <0>        -0.6482
     34 O5          1.3501   -2.6026    1.6500 O.3       1 <0>        -0.6303
     35 S1          1.1775   -3.5081   -2.5659 S.o2      1 <0>         1.5193
     36 H1          3.5358   -7.4800   -1.0832 H         1 <0>         0.1426
     37 H2          4.4333   -8.0405   -3.3162 H         1 <0>         0.1398
     38 H3          2.0998   -5.4697   -0.7914 H         1 <0>         0.1599
     39 H4          5.1147   -6.3633   -5.6949 H         1 <0>         0.0574
     40 H5          4.0627   -7.7864   -5.7947 H         1 <0>         0.0629
     41 H6          3.5311   -4.0088    2.1410 H         1 <0>         0.0614
     42 H7          5.2694   -4.2509    2.1463 H         1 <0>         0.0593
     43 H8          5.0641   -0.5305    2.5137 H         1 <0>         0.0841
     44 H9          3.8399   -0.5392    3.7741 H         1 <0>         0.0679
     45 H10         5.5312   -2.2723    0.6079 H         1 <0>         0.0826
     46 H11         4.4795   -3.5150   -0.0747 H         1 <0>         0.0383
     47 H12         4.0431   -4.0398   -6.4660 H         1 <0>         0.0556
     48 H13         2.4729   -4.0799   -7.2710 H         1 <0>         0.0415
     49 H14         2.9188    0.0160    1.5141 H         1 <0>         0.0851
     50 H15         2.2693   -6.5190   -6.8298 H         1 <0>         0.0639
     51 H16         3.9047   -2.8651    4.0450 H         1 <0>         0.0584
     52 H17         3.2554   -6.0057   -8.9529 H         1 <0>         0.0401
     53 H18         4.8233   -5.6107   -8.2222 H         1 <0>         0.0440
     54 H19         4.2559   -7.2916   -8.2507 H         1 <0>         0.0459
     55 H20         6.0310   -3.1862    4.7353 H         1 <0>         0.0456
     56 H21         6.7293   -2.8350    3.1425 H         1 <0>         0.0366
     57 H22         6.2606   -1.5045    4.2187 H         1 <0>         0.0474
     58 H23         3.1961   -0.1462   -3.7411 H         1 <0>         0.0800
     59 H24         3.7428    0.6319   -2.2522 H         1 <0>         0.0681
     60 H25         5.4094   -1.1917   -1.8946 H         1 <0>         0.0740
     61 H26         4.9285   -1.9502   -3.4070 H         1 <0>         0.0631
     62 H27         4.7831    1.7144   -4.2291 H         1 <0>         0.0970
     63 H28         5.4669    0.1582   -4.7272 H         1 <0>         0.0725
     64 H29         3.7703   -3.1244   -1.5692 H         1 <0>         0.0839
     65 H30         1.9026   -3.5116   -5.0286 H         1 <0>         0.4531
     66 H31         8.6414    1.4157   -1.7620 H         1 <0>         0.4798
     67 H32         9.6683    1.2673   -3.1536 H         1 <0>         0.4881
     68 H33         7.0207    0.6251   -5.5488 H         1 <0>         0.4801
     69 H34         8.7385    0.8103   -5.3418 H         1 <0>         0.4806
     70 H35         6.2215    1.1536   -2.0377 H         1 <0>         0.4689
     71 H36         1.9407   -1.3323   -3.1385 H         1 <0>         0.4505
     72 H37         0.5099   -2.9556    2.0129 H         1 <0>         0.4443
@<TRIPOS>BOND
     1    1    2 ar
     2    1    3 ar
     3    2    4 ar
     4    3    6 ar
     5    4    5 ar
     6    4   10 1
     7    5    6 ar
     8    5   24 1
     9    6   35 1
    10    7   15 1
    11    7   30 2
    12    7   34 1
    13    8   23 1
    14    8   25 am
    15    8   31 2
    16    9   26 1
    17    9   27 1
    18    9   28 1
    19   10   16 1
    20   11   13 1
    21   11   17 1
    22   12   15 1
    23   12   17 1
    24   13   25 1
    25   14   16 1
    26   14   24 1
    27   15   25 1
    28   16   18 1
    29   17   19 1
    30   20   21 1
    31   20   22 1
    32   21   23 1
    33   22   28 1
    34   23   29 1
    35   29   35 1
    36   32   35 2
    37   33   35 2
    38    1   36 1
    39    2   37 1
    40    3   38 1
    41   10   39 1
    42   10   40 1
    43   11   41 1
    44   11   42 1
    45   12   43 1
    46   12   44 1
    47   13   45 1
    48   13   46 1
    49   14   47 1
    50   14   48 1
    51   15   49 1
    52   16   50 1
    53   17   51 1
    54   18   52 1
    55   18   53 1
    56   18   54 1
    57   19   55 1
    58   19   56 1
    59   19   57 1
    60   20   58 1
    61   20   59 1
    62   21   60 1
    63   21   61 1
    64   22   62 1
    65   22   63 1
    66   23   64 1
    67   24   65 1
    68   26   66 1
    69   26   67 1
    70   27   68 1
    71   27   69 1
    72   28   70 1
    73   29   71 1
    74   34   72 1
@<TRIPOS>MOLECULE
1dwc_ligand_309
   72    74     0     0     0
SMALL
USER_CHARGES

mmff94s_NoEstat = 81.59
@<TRIPOS>ATOM
      1 C1         -2.2959   -2.3538    7.8119 C.ar      1 <0>        -0.1945
      2 C2         -2.6720   -1.0237    7.9869 C.ar      1 <0>        -0.0294
      3 C3         -2.3070   -2.9163    6.5390 C.ar      1 <0>        -0.0143
      4 C4         -3.0584   -0.2458    6.8861 C.ar      1 <0>        -0.1552
      5 C5         -3.1002   -0.8160    5.5982 C.ar      1 <0>         0.3076
      6 C6         -2.7033   -2.1518    5.4404 C.ar      1 <0>        -0.4908
      7 C7          2.0323   -3.0842    5.9821 C.2       1 <0>         0.5994
      8 C8          0.8654   -1.4427    3.2413 C.2       1 <0>         0.6462
      9 C9          1.6156   -7.3323    1.7100 C.cat     1 <0>         0.6305
     10 C10        -3.4700    1.1919    7.0953 C.3       1 <0>        -0.0319
     11 C11         3.0911    0.4998    5.4298 C.3       1 <0>        -0.0918
     12 C12         1.5534   -0.8369    6.8842 C.3       1 <0>        -0.0841
     13 C13         2.8818   -0.5022    4.3015 C.3       1 <0>         0.0870
     14 C14        -4.0628    1.2474    4.6598 C.3       1 <0>         0.2023
     15 C15         1.2754   -1.7924    5.7207 C.3       1 <0>         0.0778
     16 C16        -3.3611    2.0019    5.7939 C.3       1 <0>        -0.0746
     17 C17         2.9339   -0.1724    6.7962 C.3       1 <0>        -0.0681
     18 C18        -3.9527    3.3976    5.9715 C.3       1 <0>        -0.0944
     19 C19         3.1216    0.8403    7.9242 C.3       1 <0>        -0.0918
     20 C20        -0.5404   -4.8511    2.0458 C.3       1 <0>        -0.1192
     21 C21         0.3004   -3.5693    2.0376 C.3       1 <0>        -0.0916
     22 C22        -0.1768   -5.7847    0.8978 C.3       1 <0>         0.1883
     23 C23        -0.0078   -2.6730    3.2260 C.3       1 <0>         0.1952
     24 N1         -3.4782   -0.0694    4.4890 N.pl3     1 <0>        -0.7670
     25 N2          1.5999   -1.2067    4.4091 N.am      1 <0>        -0.4509
     26 N3          2.9496   -7.7229    1.7631 N.pl3     1 <0>        -0.8477
     27 N4          0.6648   -8.0708    2.4061 N.pl3     1 <0>        -0.8633
     28 N5          1.2122   -6.2141    0.9723 N.pl3     1 <0>        -0.7419
     29 N6         -1.3760   -2.1385    3.1042 N.pl3     1 <0>        -0.8860
     30 O1          3.1450   -3.3455    5.5497 O.2       1 <0>        -0.5199
     31 O2          0.8891   -0.7105    2.2483 O.2       1 <0>        -0.6131
     32 O3         -2.3304   -4.3295    4.0644 O.2       1 <0>        -0.6576
     33 O4         -3.9087   -2.5768    3.1921 O.2       1 <0>        -0.6482
     34 O5          1.3022   -3.9170    6.7635 O.3       1 <0>        -0.6303
     35 S1         -2.6746   -2.9347    3.8647 S.o2      1 <0>         1.5193
     36 H1         -1.9909   -2.9498    8.6676 H         1 <0>         0.1426
     37 H2         -2.6574   -0.5917    8.9847 H         1 <0>         0.1398
     38 H3         -2.0103   -3.9495    6.3897 H         1 <0>         0.1599
     39 H4         -4.5027    1.2042    7.4664 H         1 <0>         0.0574
     40 H5         -2.8343    1.6552    7.8598 H         1 <0>         0.0629
     41 H6          4.0885    0.9467    5.3426 H         1 <0>         0.0614
     42 H7          2.3630    1.3153    5.3324 H         1 <0>         0.0593
     43 H8          0.7851   -0.0517    6.8776 H         1 <0>         0.0841
     44 H9          1.4567   -1.3607    7.8437 H         1 <0>         0.0679
     45 H10         2.9560    0.0148    3.3392 H         1 <0>         0.0826
     46 H11         3.6704   -1.2643    4.3172 H         1 <0>         0.0383
     47 H12        -5.1346    1.1449    4.8705 H         1 <0>         0.0556
     48 H13        -3.9688    1.8032    3.7203 H         1 <0>         0.0415
     49 H14         0.2160   -2.0663    5.7460 H         1 <0>         0.0851
     50 H15        -2.2992    2.1152    5.5368 H         1 <0>         0.0639
     51 H16         3.7104   -0.9392    6.9078 H         1 <0>         0.0584
     52 H17        -3.6607    4.0473    5.1410 H         1 <0>         0.0401
     53 H18        -5.0453    3.3508    6.0047 H         1 <0>         0.0440
     54 H19        -3.5987    3.8493    6.9030 H         1 <0>         0.0459
     55 H20         2.2527    0.8404    8.5891 H         1 <0>         0.0456
     56 H21         4.0086    0.5961    8.5164 H         1 <0>         0.0366
     57 H22         3.2450    1.8489    7.5186 H         1 <0>         0.0474
     58 H23        -0.4002   -5.3741    2.9994 H         1 <0>         0.0800
     59 H24        -1.6035   -4.5964    1.9658 H         1 <0>         0.0681
     60 H25         0.1357   -3.0322    1.0943 H         1 <0>         0.0740
     61 H26         1.3654   -3.8328    2.0643 H         1 <0>         0.0631
     62 H27        -0.3350   -5.3004   -0.0711 H         1 <0>         0.0970
     63 H28        -0.8024   -6.6822    0.9336 H         1 <0>         0.0725
     64 H29         0.1003   -3.1895    4.1787 H         1 <0>         0.0839
     65 H30        -3.5654   -0.5418    3.5977 H         1 <0>         0.4531
     66 H31         3.6785   -7.2150    1.2691 H         1 <0>         0.4798
     67 H32         3.2344   -8.5378    2.3016 H         1 <0>         0.4881
     68 H33        -0.3190   -7.8132    2.3888 H         1 <0>         0.4801
     69 H34         0.9286   -8.8877    2.9518 H         1 <0>         0.4806
     70 H35         1.9332   -5.6921    0.4720 H         1 <0>         0.4689
     71 H36        -1.4476   -1.1318    2.9219 H         1 <0>         0.4505
     72 H37         1.7734   -4.7586    6.9424 H         1 <0>         0.4443
@<TRIPOS>BOND
     1    1    2 ar
     2    1    3 ar
     3    2    4 ar
     4    3    6 ar
     5    4    5 ar
     6    4   10 1
     7    5    6 ar
     8    5   24 1
     9    6   35 1
    10    7   15 1
    11    7   30 2
    12    7   34 1
    13    8   23 1
    14    8   25 am
    15    8   31 2
    16    9   26 1
    17    9   27 1
    18    9   28 1
    19   10   16 1
    20   11   13 1
    21   11   17 1
    22   12   15 1
    23   12   17 1
    24   13   25 1
    25   14   16 1
    26   14   24 1
    27   15   25 1
    28   16   18 1
    29   17   19 1
    30   20   21 1
    31   20   22 1
    32   21   23 1
    33   22   28 1
    34   23   29 1
    35   29   35 1
    36   32   35 2
    37   33   35 2
    38    1   36 1
    39    2   37 1
    40    3   38 1
    41   10   39 1
    42   10   40 1
    43   11   41 1
    44   11   42 1
    45   12   43 1
    46   12   44 1
    47   13   45 1
    48   13   46 1
    49   14   47 1
    50   14   48 1
    51   15   49 1
    52   16   50 1
    53   17   51 1
    54   18   52 1
    55   18   53 1
    56   18   54 1
    57   19   55 1
    58   19   56 1
    59   19   57 1
    60   20   58 1
    61   20   59 1
    62   21   60 1
    63   21   61 1
    64   22   62 1
    65   22   63 1
    66   23   64 1
    67   24   65 1
    68   26   66 1
    69   26   67 1
    70   27   68 1
    71   27   69 1
    72   28   70 1
    73   29   71 1
    74   34   72 1
@<TRIPOS>MOLECULE
1dwc_ligand_310
   72    74     0     0     0
SMALL
USER_CHARGES

mmff94s_NoEstat = 81.60
@<TRIPOS>ATOM
      1 C1         -2.0732   -6.1389    5.6806 C.ar      1 <0>        -0.1945
      2 C2         -2.6808   -6.9079    4.6902 C.ar      1 <0>        -0.0294
      3 C3         -2.0299   -4.7535    5.5544 C.ar      1 <0>        -0.0143
      4 C4         -3.2534   -6.2935    3.5673 C.ar      1 <0>        -0.1552
      5 C5         -3.1881   -4.8939    3.4179 C.ar      1 <0>         0.3076
      6 C6         -2.5860   -4.1361    4.4328 C.ar      1 <0>        -0.4908
      7 C7          3.7233   -2.4449    4.7893 C.2       1 <0>         0.5994
      8 C8          0.8654   -1.4427    3.2413 C.2       1 <0>         0.6462
      9 C9          2.0746   -5.2044   -1.4852 C.cat     1 <0>         0.6305
     10 C10        -3.9012   -7.1431    2.5003 C.3       1 <0>        -0.0319
     11 C11         1.7658    0.4222    6.2790 C.3       1 <0>        -0.0918
     12 C12         2.2228   -2.0030    6.6989 C.3       1 <0>        -0.0841
     13 C13         1.9003    0.1799    4.7810 C.3       1 <0>         0.0870
     14 C14        -4.2059   -5.0337    1.1799 C.3       1 <0>         0.2023
     15 C15         2.2690   -2.2605    5.1905 C.3       1 <0>         0.0778
     16 C16        -4.8855   -6.3235    1.6511 C.3       1 <0>        -0.0746
     17 C17         2.6202   -0.5689    7.0736 C.3       1 <0>        -0.0681
     18 C18        -5.3916   -7.1408    0.4657 C.3       1 <0>        -0.0944
     19 C19         2.4647   -0.3375    8.5754 C.3       1 <0>        -0.0918
     20 C20         0.0249   -2.8727    0.7002 C.3       1 <0>        -0.1192
     21 C21         0.3004   -3.5693    2.0376 C.3       1 <0>        -0.0916
     22 C22         0.2602   -3.7963   -0.4886 C.3       1 <0>         0.1883
     23 C23        -0.0078   -2.6730    3.2260 C.3       1 <0>         0.1952
     24 N1         -3.7473   -4.2576    2.3165 N.pl3     1 <0>        -0.7670
     25 N2          1.5999   -1.2067    4.4091 N.am      1 <0>        -0.4509
     26 N3          3.3877   -5.6631   -1.4955 N.pl3     1 <0>        -0.8477
     27 N4          1.1890   -5.6621   -2.4548 N.pl3     1 <0>        -0.8633
     28 N5          1.6278   -4.2942   -0.5212 N.pl3     1 <0>        -0.7419
     29 N6         -1.3760   -2.1385    3.1042 N.pl3     1 <0>        -0.8860
     30 O1          4.4523   -1.5599    4.3665 O.2       1 <0>        -0.5199
     31 O2          0.8891   -0.7105    2.2483 O.2       1 <0>        -0.6131
     32 O3         -3.7998   -1.8872    3.9383 O.2       1 <0>        -0.6576
     33 O4         -1.9207   -1.9310    5.6091 O.2       1 <0>        -0.6482
     34 O5          4.1079   -3.7331    4.9617 O.3       1 <0>        -0.6303
     35 S1         -2.5018   -2.3799    4.3583 S.o2      1 <0>         1.5193
     36 H1         -1.6372   -6.6199    6.5517 H         1 <0>         0.1426
     37 H2         -2.7127   -7.9895    4.7986 H         1 <0>         0.1398
     38 H3         -1.5647   -4.1439    6.3224 H         1 <0>         0.1599
     39 H4         -3.1097   -7.5632    1.8667 H         1 <0>         0.0574
     40 H5         -4.4383   -7.9798    2.9637 H         1 <0>         0.0629
     41 H6          2.0669    1.4503    6.5123 H         1 <0>         0.0614
     42 H7          0.7128    0.3207    6.5714 H         1 <0>         0.0593
     43 H8          1.1978   -2.1858    7.0494 H         1 <0>         0.0841
     44 H9          2.8666   -2.7151    7.2306 H         1 <0>         0.0679
     45 H10         1.2456    0.8722    4.2416 H         1 <0>         0.0826
     46 H11         2.9258    0.3867    4.4518 H         1 <0>         0.0383
     47 H12        -3.3535   -5.2630    0.5284 H         1 <0>         0.0556
     48 H13        -4.9071   -4.4281    0.5950 H         1 <0>         0.0415
     49 H14         1.7884   -3.2235    4.9909 H         1 <0>         0.0851
     50 H15        -5.7514   -6.0581    2.2728 H         1 <0>         0.0639
     51 H16         3.6763   -0.4106    6.8224 H         1 <0>         0.0584
     52 H17        -6.2610   -6.6582    0.0093 H         1 <0>         0.0401
     53 H18        -4.6118   -7.2373   -0.2957 H         1 <0>         0.0440
     54 H19        -5.6846   -8.1445    0.7879 H         1 <0>         0.0459
     55 H20         2.1532   -1.2591    9.0761 H         1 <0>         0.0456
     56 H21         3.4121   -0.0103    9.0142 H         1 <0>         0.0366
     57 H22         1.7112    0.4316    8.7697 H         1 <0>         0.0474
     58 H23        -1.0105   -2.5120    0.6824 H         1 <0>         0.0800
     59 H24         0.6776   -1.9980    0.5976 H         1 <0>         0.0681
     60 H25         1.3460   -3.9033    2.0652 H         1 <0>         0.0740
     61 H26        -0.3175   -4.4733    2.1109 H         1 <0>         0.0631
     62 H27         0.0590   -3.2831   -1.4342 H         1 <0>         0.0970
     63 H28        -0.4054   -4.6631   -0.4257 H         1 <0>         0.0725
     64 H29         0.1003   -3.1895    4.1787 H         1 <0>         0.0839
     65 H30        -3.6095   -3.2595    2.2158 H         1 <0>         0.4531
     66 H31         4.0702   -5.3548   -0.8082 H         1 <0>         0.4798
     67 H32         3.7046   -6.3246   -2.2006 H         1 <0>         0.4881
     68 H33         0.2221   -5.3473   -2.4765 H         1 <0>         0.4801
     69 H34         1.4849   -6.3248   -3.1675 H         1 <0>         0.4806
     70 H35         2.3012   -3.9765    0.1776 H         1 <0>         0.4689
     71 H36        -1.4850   -1.3266    2.4871 H         1 <0>         0.4505
     72 H37         5.0446   -3.8732    4.7061 H         1 <0>         0.4443
@<TRIPOS>BOND
     1    1    2 ar
     2    1    3 ar
     3    2    4 ar
     4    3    6 ar
     5    4    5 ar
     6    4   10 1
     7    5    6 ar
     8    5   24 1
     9    6   35 1
    10    7   15 1
    11    7   30 2
    12    7   34 1
    13    8   23 1
    14    8   25 am
    15    8   31 2
    16    9   26 1
    17    9   27 1
    18    9   28 1
    19   10   16 1
    20   11   13 1
    21   11   17 1
    22   12   15 1
    23   12   17 1
    24   13   25 1
    25   14   16 1
    26   14   24 1
    27   15   25 1
    28   16   18 1
    29   17   19 1
    30   20   21 1
    31   20   22 1
    32   21   23 1
    33   22   28 1
    34   23   29 1
    35   29   35 1
    36   32   35 2
    37   33   35 2
    38    1   36 1
    39    2   37 1
    40    3   38 1
    41   10   39 1
    42   10   40 1
    43   11   41 1
    44   11   42 1
    45   12   43 1
    46   12   44 1
    47   13   45 1
    48   13   46 1
    49   14   47 1
    50   14   48 1
    51   15   49 1
    52   16   50 1
    53   17   51 1
    54   18   52 1
    55   18   53 1
    56   18   54 1
    57   19   55 1
    58   19   56 1
    59   19   57 1
    60   20   58 1
    61   20   59 1
    62   21   60 1
    63   21   61 1
    64   22   62 1
    65   22   63 1
    66   23   64 1
    67   24   65 1
    68   26   66 1
    69   26   67 1
    70   27   68 1
    71   27   69 1
    72   28   70 1
    73   29   71 1
    74   34   72 1
@<TRIPOS>MOLECULE
1dwc_ligand_311
   72    74     0     0     0
SMALL
USER_CHARGES

mmff94s_NoEstat = 81.62
@<TRIPOS>ATOM
      1 C1         -3.3475   -6.3503    1.8791 C.ar      1 <0>        -0.1945
      2 C2         -3.9958   -5.9344    0.7180 C.ar      1 <0>        -0.0294
      3 C3         -2.9512   -5.4113    2.8268 C.ar      1 <0>        -0.0143
      4 C4         -4.2554   -4.5738    0.4999 C.ar      1 <0>        -0.1552
      5 C5         -3.8316   -3.6142    1.4408 C.ar      1 <0>         0.3076
      6 C6         -3.1944   -4.0540    2.6102 C.ar      1 <0>        -0.4908
      7 C7          0.7009   -2.1464    6.5648 C.2       1 <0>         0.5994
      8 C8          0.8654   -1.4427    3.2413 C.2       1 <0>         0.6462
      9 C9         -0.6326   -5.9229   -1.4626 C.cat     1 <0>         0.6305
     10 C10        -4.9524   -4.1403   -0.7675 C.3       1 <0>        -0.0319
     11 C11         2.1349    1.1778    5.4857 C.3       1 <0>        -0.0918
     12 C12         0.0512    0.2342    6.5026 C.3       1 <0>        -0.0841
     13 C13         2.3350   -0.1191    4.7120 C.3       1 <0>         0.0870
     14 C14        -4.5641   -1.7769   -0.0261 C.3       1 <0>         0.2023
     15 C15         0.2061   -1.0325    5.6569 C.3       1 <0>         0.0778
     16 C16        -5.5921   -2.7519   -0.6095 C.3       1 <0>        -0.0746
     17 C17         1.3898    0.9236    6.7987 C.3       1 <0>        -0.0681
     18 C18        -6.1301   -2.2464   -1.9453 C.3       1 <0>        -0.0944
     19 C19         1.1710    2.2294    7.5603 C.3       1 <0>        -0.0918
     20 C20         0.0249   -2.8727    0.7002 C.3       1 <0>        -0.1192
     21 C21         0.3004   -3.5693    2.0376 C.3       1 <0>        -0.0916
     22 C22         0.2602   -3.7963   -0.4886 C.3       1 <0>         0.1883
     23 C23        -0.0078   -2.6730    3.2260 C.3       1 <0>         0.1952
     24 N1         -4.0757   -2.2595    1.2518 N.pl3     1 <0>        -0.7670
     25 N2          1.0754   -0.8353    4.4846 N.am      1 <0>        -0.4509
     26 N3         -1.4804   -7.0239   -1.4014 N.pl3     1 <0>        -0.8477
     27 N4          0.2178   -5.7819   -2.5539 N.pl3     1 <0>        -0.8633
     28 N5         -0.6182   -4.9567   -0.4508 N.pl3     1 <0>        -0.7419
     29 N6         -1.3760   -2.1385    3.1042 N.pl3     1 <0>        -0.8860
     30 O1          1.8726   -2.4569    6.7201 O.2       1 <0>        -0.5199
     31 O2          1.3411   -1.0305    2.1799 O.2       1 <0>        -0.6131
     32 O3         -3.7495   -1.9880    4.0928 O.2       1 <0>        -0.6576
     33 O4         -2.1627   -3.7355    4.9602 O.2       1 <0>        -0.6482
     34 O5         -0.3390   -2.7573    7.1834 O.3       1 <0>        -0.6303
     35 S1         -2.6746   -2.9347    3.8647 S.o2      1 <0>         1.5193
     36 H1         -3.1550   -7.4065    2.0458 H         1 <0>         0.1426
     37 H2         -4.3045   -6.6753   -0.0157 H         1 <0>         0.1398
     38 H3         -2.4509   -5.7242    3.7377 H         1 <0>         0.1599
     39 H4         -4.2148   -4.1296   -1.5800 H         1 <0>         0.0574
     40 H5         -5.7315   -4.8656   -1.0323 H         1 <0>         0.0629
     41 H6          3.1095    1.6373    5.6888 H         1 <0>         0.0614
     42 H7          1.5671    1.8861    4.8689 H         1 <0>         0.0593
     43 H8         -0.5924    0.9376    5.9566 H         1 <0>         0.0841
     44 H9         -0.4632    0.0070    7.4450 H         1 <0>         0.0679
     45 H10         2.8294    0.0994    3.7598 H         1 <0>         0.0826
     46 H11         2.9949   -0.7966    5.2674 H         1 <0>         0.0383
     47 H12        -3.7191   -1.6505   -0.7142 H         1 <0>         0.0556
     48 H13        -5.0170   -0.7893    0.1158 H         1 <0>         0.0415
     49 H14        -0.7880   -1.3485    5.3249 H         1 <0>         0.0851
     50 H15        -6.4375   -2.8304    0.0874 H         1 <0>         0.0639
     51 H16         1.9994    0.2688    7.4336 H         1 <0>         0.0584
     52 H17        -6.7909   -1.3877   -1.7933 H         1 <0>         0.0401
     53 H18        -5.3086   -1.9377   -2.5987 H         1 <0>         0.0440
     54 H19        -6.6976   -3.0320   -2.4531 H         1 <0>         0.0459
     55 H20         0.1089    2.3722    7.7811 H         1 <0>         0.0456
     56 H21         1.7213    2.2199    8.5059 H         1 <0>         0.0366
     57 H22         1.5173    3.0821    6.9686 H         1 <0>         0.0474
     58 H23        -1.0105   -2.5120    0.6824 H         1 <0>         0.0800
     59 H24         0.6776   -1.9980    0.5976 H         1 <0>         0.0681
     60 H25         1.3460   -3.9033    2.0652 H         1 <0>         0.0740
     61 H26        -0.3175   -4.4733    2.1109 H         1 <0>         0.0631
     62 H27         1.2957   -4.1503   -0.5157 H         1 <0>         0.0970
     63 H28         0.0608   -3.2615   -1.4226 H         1 <0>         0.0725
     64 H29         0.1003   -3.1895    4.1787 H         1 <0>         0.0839
     65 H30        -3.6865   -1.6028    1.9171 H         1 <0>         0.4531
     66 H31        -2.1173   -7.1693   -0.6226 H         1 <0>         0.4798
     67 H32        -1.4841   -7.7223   -2.1412 H         1 <0>         0.4881
     68 H33         0.8505   -4.9892   -2.6303 H         1 <0>         0.4801
     69 H34         0.2286   -6.4677   -3.3050 H         1 <0>         0.4806
     70 H35        -1.2539   -5.0876    0.3375 H         1 <0>         0.4689
     71 H36        -1.4476   -1.1318    2.9219 H         1 <0>         0.4505
     72 H37        -0.0400   -3.4817    7.7735 H         1 <0>         0.4443
@<TRIPOS>BOND
     1    1    2 ar
     2    1    3 ar
     3    2    4 ar
     4    3    6 ar
     5    4    5 ar
     6    4   10 1
     7    5    6 ar
     8    5   24 1
     9    6   35 1
    10    7   15 1
    11    7   30 2
    12    7   34 1
    13    8   23 1
    14    8   25 am
    15    8   31 2
    16    9   26 1
    17    9   27 1
    18    9   28 1
    19   10   16 1
    20   11   13 1
    21   11   17 1
    22   12   15 1
    23   12   17 1
    24   13   25 1
    25   14   16 1
    26   14   24 1
    27   15   25 1
    28   16   18 1
    29   17   19 1
    30   20   21 1
    31   20   22 1
    32   21   23 1
    33   22   28 1
    34   23   29 1
    35   29   35 1
    36   32   35 2
    37   33   35 2
    38    1   36 1
    39    2   37 1
    40    3   38 1
    41   10   39 1
    42   10   40 1
    43   11   41 1
    44   11   42 1
    45   12   43 1
    46   12   44 1
    47   13   45 1
    48   13   46 1
    49   14   47 1
    50   14   48 1
    51   15   49 1
    52   16   50 1
    53   17   51 1
    54   18   52 1
    55   18   53 1
    56   18   54 1
    57   19   55 1
    58   19   56 1
    59   19   57 1
    60   20   58 1
    61   20   59 1
    62   21   60 1
    63   21   61 1
    64   22   62 1
    65   22   63 1
    66   23   64 1
    67   24   65 1
    68   26   66 1
    69   26   67 1
    70   27   68 1
    71   27   69 1
    72   28   70 1
    73   29   71 1
    74   34   72 1
@<TRIPOS>MOLECULE
1dwc_ligand_312
   72    74     0     0     0
SMALL
USER_CHARGES

mmff94s_NoEstat = 81.62
@<TRIPOS>ATOM
      1 C1          1.6845   -5.9778    0.1844 C.ar      1 <0>        -0.1945
      2 C2          0.6520   -5.4496    0.9566 C.ar      1 <0>        -0.0294
      3 C3          1.9606   -5.4374   -1.0681 C.ar      1 <0>        -0.0143
      4 C4         -0.1093   -4.3725    0.4806 C.ar      1 <0>        -0.1552
      5 C5          0.1450   -3.8386   -0.7984 C.ar      1 <0>         0.3076
      6 C6          1.1982   -4.3739   -1.5539 C.ar      1 <0>        -0.4908
      7 C7          1.8102   -1.5505    2.3702 C.2       1 <0>         0.5994
      8 C8          2.9466   -1.3973   -0.6457 C.2       1 <0>         0.6462
      9 C9          5.5099    2.9416   -5.0187 C.cat     1 <0>         0.6305
     10 C10        -1.2292   -3.8175    1.3278 C.3       1 <0>        -0.0319
     11 C11         4.4920   -3.4807    2.0801 C.3       1 <0>        -0.0918
     12 C12         4.1798   -1.0721    2.8769 C.3       1 <0>        -0.0841
     13 C13         4.5658   -2.7774    0.7291 C.3       1 <0>         0.0870
     14 C14        -1.7931   -2.3309   -0.6108 C.3       1 <0>         0.2023
     15 C15         3.1125   -1.0286    1.7861 C.3       1 <0>         0.0778
     16 C16        -1.5940   -2.3850    0.9075 C.3       1 <0>        -0.0746
     17 C17         4.5869   -2.5050    3.2643 C.3       1 <0>        -0.0681
     18 C18        -2.8431   -1.9049    1.6414 C.3       1 <0>        -0.0944
     19 C19         5.9882   -2.5079    3.8779 C.3       1 <0>        -0.0918
     20 C20         4.0666    0.0061   -3.0917 C.3       1 <0>        -0.1192
     21 C21         4.5564   -1.3488   -2.5679 C.3       1 <0>        -0.0916
     22 C22         5.1498    0.7503   -3.8628 C.3       1 <0>         0.1883
     23 C23         3.4544   -2.1251   -1.8653 C.3       1 <0>         0.1952
     24 N1         -0.5924   -2.7711   -1.2958 N.pl3     1 <0>        -0.7670
     25 N2          3.5192   -1.7560    0.5781 N.am      1 <0>        -0.4509
     26 N3          5.0373    4.1732   -5.4600 N.pl3     1 <0>        -0.8477
     27 N4          6.8343    2.5959   -5.2649 N.pl3     1 <0>        -0.8633
     28 N5          4.6819    2.0459   -4.3336 N.pl3     1 <0>        -0.7419
     29 N6          2.2741   -2.2179   -2.7432 N.pl3     1 <0>        -0.8860
     30 O1          1.1684   -2.4905    1.9254 O.2       1 <0>        -0.5199
     31 O2          2.0685   -0.5400   -0.7710 O.2       1 <0>        -0.6131
     32 O3          2.6686   -4.5798   -3.6918 O.2       1 <0>        -0.6576
     33 O4          0.3811   -3.5494   -3.8650 O.2       1 <0>        -0.6482
     34 O5          1.4498   -0.8272    3.4584 O.3       1 <0>        -0.6303
     35 S1          1.6226   -3.7401   -3.1398 S.o2      1 <0>         1.5193
     36 H1          2.2754   -6.8081    0.5612 H         1 <0>         0.1426
     37 H2          0.4453   -5.8762    1.9353 H         1 <0>         0.1398
     38 H3          2.7663   -5.8367   -1.6758 H         1 <0>         0.1599
     39 H4         -2.0994   -4.4781    1.2245 H         1 <0>         0.0574
     40 H5         -0.9335   -3.8165    2.3842 H         1 <0>         0.0629
     41 H6          3.5311   -4.0088    2.1410 H         1 <0>         0.0614
     42 H7          5.2694   -4.2509    2.1463 H         1 <0>         0.0593
     43 H8          5.0641   -0.5305    2.5137 H         1 <0>         0.0841
     44 H9          3.8399   -0.5392    3.7741 H         1 <0>         0.0679
     45 H10         5.5312   -2.2723    0.6079 H         1 <0>         0.0826
     46 H11         4.4795   -3.5150   -0.0747 H         1 <0>         0.0383
     47 H12        -2.6365   -2.9647   -0.9116 H         1 <0>         0.0556
     48 H13        -2.0279   -1.3080   -0.9257 H         1 <0>         0.0415
     49 H14         2.9188    0.0160    1.5141 H         1 <0>         0.0851
     50 H15        -0.7654   -1.7164    1.1777 H         1 <0>         0.0639
     51 H16         3.9047   -2.8651    4.0450 H         1 <0>         0.0584
     52 H17        -2.9604   -0.8225    1.5328 H         1 <0>         0.0401
     53 H18        -3.7366   -2.3905    1.2379 H         1 <0>         0.0440
     54 H19        -2.7758   -2.1387    2.7081 H         1 <0>         0.0459
     55 H20         6.0310   -3.1862    4.7353 H         1 <0>         0.0456
     56 H21         6.7293   -2.8350    3.1425 H         1 <0>         0.0366
     57 H22         6.2606   -1.5045    4.2187 H         1 <0>         0.0474
     58 H23         3.1961   -0.1462   -3.7411 H         1 <0>         0.0800
     59 H24         3.7428    0.6319   -2.2522 H         1 <0>         0.0681
     60 H25         5.4094   -1.1917   -1.8946 H         1 <0>         0.0740
     61 H26         4.9285   -1.9502   -3.4070 H         1 <0>         0.0631
     62 H27         5.4874    0.1718   -4.7286 H         1 <0>         0.0970
     63 H28         6.0148    0.9268   -3.2156 H         1 <0>         0.0725
     64 H29         3.7703   -3.1244   -1.5692 H         1 <0>         0.0839
     65 H30        -0.4235   -2.4715   -2.2481 H         1 <0>         0.4531
     66 H31         4.0769    4.4674   -5.3045 H         1 <0>         0.4798
     67 H32         5.6462    4.8184   -5.9581 H         1 <0>         0.4881
     68 H33         7.2124    1.7035   -4.9563 H         1 <0>         0.4801
     69 H34         7.4600    3.2272   -5.7595 H         1 <0>         0.4806
     70 H35         3.7146    2.3280   -4.1678 H         1 <0>         0.4689
     71 H36         1.6613   -1.3957   -2.7560 H         1 <0>         0.4505
     72 H37         0.6092   -1.1478    3.8495 H         1 <0>         0.4443
@<TRIPOS>BOND
     1    1    2 ar
     2    1    3 ar
     3    2    4 ar
     4    3    6 ar
     5    4    5 ar
     6    4   10 1
     7    5    6 ar
     8    5   24 1
     9    6   35 1
    10    7   15 1
    11    7   30 2
    12    7   34 1
    13    8   23 1
    14    8   25 am
    15    8   31 2
    16    9   26 1
    17    9   27 1
    18    9   28 1
    19   10   16 1
    20   11   13 1
    21   11   17 1
    22   12   15 1
    23   12   17 1
    24   13   25 1
    25   14   16 1
    26   14   24 1
    27   15   25 1
    28   16   18 1
    29   17   19 1
    30   20   21 1
    31   20   22 1
    32   21   23 1
    33   22   28 1
    34   23   29 1
    35   29   35 1
    36   32   35 2
    37   33   35 2
    38    1   36 1
    39    2   37 1
    40    3   38 1
    41   10   39 1
    42   10   40 1
    43   11   41 1
    44   11   42 1
    45   12   43 1
    46   12   44 1
    47   13   45 1
    48   13   46 1
    49   14   47 1
    50   14   48 1
    51   15   49 1
    52   16   50 1
    53   17   51 1
    54   18   52 1
    55   18   53 1
    56   18   54 1
    57   19   55 1
    58   19   56 1
    59   19   57 1
    60   20   58 1
    61   20   59 1
    62   21   60 1
    63   21   61 1
    64   22   62 1
    65   22   63 1
    66   23   64 1
    67   24   65 1
    68   26   66 1
    69   26   67 1
    70   27   68 1
    71   27   69 1
    72   28   70 1
    73   29   71 1
    74   34   72 1
@<TRIPOS>MOLECULE
1dwc_ligand_313
   72    74     0     0     0
SMALL
USER_CHARGES

mmff94s_NoEstat = 81.63
@<TRIPOS>ATOM
      1 C1          8.0619   -4.1173   -4.2286 C.ar      1 <0>        -0.1945
      2 C2          7.9046   -3.2841   -5.3341 C.ar      1 <0>        -0.0294
      3 C3          7.5160   -3.7522   -3.0018 C.ar      1 <0>        -0.0143
      4 C4          7.2019   -2.0761   -5.2175 C.ar      1 <0>        -0.1552
      5 C5          6.6218   -1.7131   -3.9862 C.ar      1 <0>         0.3076
      6 C6          6.8044   -2.5574   -2.8813 C.ar      1 <0>        -0.4908
      7 C7          2.8752    1.3115    1.1058 C.2       1 <0>         0.5994
      8 C8          2.9466   -1.3973   -0.6457 C.2       1 <0>         0.6462
      9 C9          0.9095   -6.8556   -3.8853 C.cat     1 <0>         0.6305
     10 C10         7.0351   -1.1905   -6.4289 C.3       1 <0>        -0.0319
     11 C11         2.3641    2.0271   -2.0925 C.3       1 <0>        -0.0918
     12 C12         0.7649    1.6065   -0.1433 C.3       1 <0>        -0.0841
     13 C13         2.2856    0.5067   -2.1800 C.3       1 <0>         0.0870
     14 C14         5.5668    0.2674   -5.0034 C.3       1 <0>         0.2023
     15 C15         1.8211    0.5897    0.2827 C.3       1 <0>         0.0778
     16 C16         6.6810    0.2582   -6.0555 C.3       1 <0>        -0.0746
     17 C17         1.2898    2.6259   -1.1701 C.3       1 <0>        -0.0681
     18 C18         7.9114    1.0461   -5.5915 C.3       1 <0>        -0.0944
     19 C19         0.1276    3.2108   -1.9746 C.3       1 <0>        -0.0918
     20 C20         2.0376   -4.1819   -1.4375 C.3       1 <0>        -0.1192
     21 C21         2.4114   -3.0756   -2.4306 C.3       1 <0>        -0.0916
     22 C22         1.0502   -5.1786   -2.0318 C.3       1 <0>         0.1883
     23 C23         3.4544   -2.1251   -1.8653 C.3       1 <0>         0.1952
     24 N1          5.9268   -0.5192   -3.8388 N.pl3     1 <0>        -0.7670
     25 N2          2.3949   -0.1309   -0.8598 N.am      1 <0>        -0.4509
     26 N3          1.4590   -7.4839   -4.9980 N.pl3     1 <0>        -0.8477
     27 N4         -0.3561   -7.2332   -3.4497 N.pl3     1 <0>        -0.8633
     28 N5          1.6025   -5.8539   -3.1973 N.pl3     1 <0>        -0.7419
     29 N6          4.6097   -2.8934   -1.3678 N.pl3     1 <0>        -0.8860
     30 O1          2.6539    1.9546    2.1211 O.2       1 <0>        -0.5199
     31 O2          3.0377   -1.9312    0.4627 O.2       1 <0>        -0.6131
     32 O3          6.9529   -2.8526   -0.2994 O.2       1 <0>        -0.6576
     33 O4          5.9925   -0.7285   -1.2427 O.2       1 <0>        -0.6482
     34 O5          4.1045    1.1486    0.5584 O.3       1 <0>        -0.6303
     35 S1          6.1490   -2.1694   -1.2948 S.o2      1 <0>         1.5193
     36 H1          8.6128   -5.0492   -4.3233 H         1 <0>         0.1426
     37 H2          8.3370   -3.5761   -6.2882 H         1 <0>         0.1398
     38 H3          7.6373   -4.3904   -2.1321 H         1 <0>         0.1599
     39 H4          7.9496   -1.2005   -7.0344 H         1 <0>         0.0574
     40 H5          6.2282   -1.6124   -7.0418 H         1 <0>         0.0629
     41 H6          3.3521    2.2982   -1.6971 H         1 <0>         0.0614
     42 H7          2.3049    2.4652   -3.0956 H         1 <0>         0.0593
     43 H8         -0.0830    1.0592   -0.5778 H         1 <0>         0.0841
     44 H9          0.3696    2.1440    0.7282 H         1 <0>         0.0679
     45 H10         1.3285    0.1928   -2.6129 H         1 <0>         0.0826
     46 H11         3.0787    0.1346   -2.8358 H         1 <0>         0.0383
     47 H12         5.3450    1.2940   -4.6914 H         1 <0>         0.0556
     48 H13         4.6461   -0.1420   -5.4370 H         1 <0>         0.0415
     49 H14         1.3638   -0.1412    0.9605 H         1 <0>         0.0851
     50 H15         6.3127    0.7634   -6.9569 H         1 <0>         0.0639
     51 H16         1.7477    3.4645   -0.6301 H         1 <0>         0.0584
     52 H17         8.7766    0.3839   -5.4916 H         1 <0>         0.0401
     53 H18         8.1596    1.8310   -6.3121 H         1 <0>         0.0440
     54 H19         7.7235    1.5158   -4.6214 H         1 <0>         0.0459
     55 H20         0.4103    4.1714   -2.4154 H         1 <0>         0.0456
     56 H21        -0.1604    2.5322   -2.7831 H         1 <0>         0.0366
     57 H22        -0.7432    3.3698   -1.3317 H         1 <0>         0.0474
     58 H23         2.9446   -4.7113   -1.1217 H         1 <0>         0.0800
     59 H24         1.5893   -3.7381   -0.5411 H         1 <0>         0.0681
     60 H25         1.5058   -2.5277   -2.7226 H         1 <0>         0.0740
     61 H26         2.8104   -3.5289   -3.3468 H         1 <0>         0.0631
     62 H27         0.1202   -4.6842   -2.3301 H         1 <0>         0.0970
     63 H28         0.8030   -5.9463   -1.2916 H         1 <0>         0.0725
     64 H29         3.7902   -1.3903   -2.5956 H         1 <0>         0.0839
     65 H30         5.4649   -0.3392   -2.9558 H         1 <0>         0.4531
     66 H31         2.3795   -7.2395   -5.3534 H         1 <0>         0.4798
     67 H32         0.9479   -8.2111   -5.4930 H         1 <0>         0.4881
     68 H33        -0.7876   -6.7945   -2.6399 H         1 <0>         0.4801
     69 H34        -0.8831   -7.9592   -3.9292 H         1 <0>         0.4806
     70 H35         2.5295   -5.5984   -3.5409 H         1 <0>         0.4689
     71 H36         4.3912   -3.6637   -0.7270 H         1 <0>         0.4505
     72 H37         4.7996    1.6094    1.0749 H         1 <0>         0.4443
@<TRIPOS>BOND
     1    1    2 ar
     2    1    3 ar
     3    2    4 ar
     4    3    6 ar
     5    4    5 ar
     6    4   10 1
     7    5    6 ar
     8    5   24 1
     9    6   35 1
    10    7   15 1
    11    7   30 2
    12    7   34 1
    13    8   23 1
    14    8   25 am
    15    8   31 2
    16    9   26 1
    17    9   27 1
    18    9   28 1
    19   10   16 1
    20   11   13 1
    21   11   17 1
    22   12   15 1
    23   12   17 1
    24   13   25 1
    25   14   16 1
    26   14   24 1
    27   15   25 1
    28   16   18 1
    29   17   19 1
    30   20   21 1
    31   20   22 1
    32   21   23 1
    33   22   28 1
    34   23   29 1
    35   29   35 1
    36   32   35 2
    37   33   35 2
    38    1   36 1
    39    2   37 1
    40    3   38 1
    41   10   39 1
    42   10   40 1
    43   11   41 1
    44   11   42 1
    45   12   43 1
    46   12   44 1
    47   13   45 1
    48   13   46 1
    49   14   47 1
    50   14   48 1
    51   15   49 1
    52   16   50 1
    53   17   51 1
    54   18   52 1
    55   18   53 1
    56   18   54 1
    57   19   55 1
    58   19   56 1
    59   19   57 1
    60   20   58 1
    61   20   59 1
    62   21   60 1
    63   21   61 1
    64   22   62 1
    65   22   63 1
    66   23   64 1
    67   24   65 1
    68   26   66 1
    69   26   67 1
    70   27   68 1
    71   27   69 1
    72   28   70 1
    73   29   71 1
    74   34   72 1
@<TRIPOS>MOLECULE
1dwc_ligand_314
   72    74     0     0     0
SMALL
USER_CHARGES

mmff94s_NoEstat = 81.63
@<TRIPOS>ATOM
      1 C1         -2.2959   -2.3538    7.8119 C.ar      1 <0>        -0.1945
      2 C2         -2.6720   -1.0237    7.9869 C.ar      1 <0>        -0.0294
      3 C3         -2.3070   -2.9163    6.5390 C.ar      1 <0>        -0.0143
      4 C4         -3.0584   -0.2458    6.8861 C.ar      1 <0>        -0.1552
      5 C5         -3.1002   -0.8160    5.5982 C.ar      1 <0>         0.3076
      6 C6         -2.7033   -2.1518    5.4404 C.ar      1 <0>        -0.4908
      7 C7          3.7233   -2.4449    4.7893 C.2       1 <0>         0.5994
      8 C8          0.8654   -1.4427    3.2413 C.2       1 <0>         0.6462
      9 C9         -0.6326   -5.9229   -1.4626 C.cat     1 <0>         0.6305
     10 C10        -3.4700    1.1919    7.0953 C.3       1 <0>        -0.0319
     11 C11         1.7658    0.4222    6.2790 C.3       1 <0>        -0.0918
     12 C12         2.2228   -2.0030    6.6989 C.3       1 <0>        -0.0841
     13 C13         1.9003    0.1799    4.7810 C.3       1 <0>         0.0870
     14 C14        -4.0628    1.2474    4.6598 C.3       1 <0>         0.2023
     15 C15         2.2690   -2.2605    5.1905 C.3       1 <0>         0.0778
     16 C16        -3.3611    2.0019    5.7939 C.3       1 <0>        -0.0746
     17 C17         2.6202   -0.5689    7.0736 C.3       1 <0>        -0.0681
     18 C18        -3.9527    3.3976    5.9715 C.3       1 <0>        -0.0944
     19 C19         2.4647   -0.3375    8.5754 C.3       1 <0>        -0.0918
     20 C20         0.0249   -2.8727    0.7002 C.3       1 <0>        -0.1192
     21 C21         0.3004   -3.5693    2.0376 C.3       1 <0>        -0.0916
     22 C22         0.2602   -3.7963   -0.4886 C.3       1 <0>         0.1883
     23 C23        -0.0078   -2.6730    3.2260 C.3       1 <0>         0.1952
     24 N1         -3.4782   -0.0694    4.4890 N.pl3     1 <0>        -0.7670
     25 N2          1.5999   -1.2067    4.4091 N.am      1 <0>        -0.4509
     26 N3         -1.4804   -7.0239   -1.4014 N.pl3     1 <0>        -0.8477
     27 N4          0.2178   -5.7819   -2.5539 N.pl3     1 <0>        -0.8633
     28 N5         -0.6182   -4.9567   -0.4508 N.pl3     1 <0>        -0.7419
     29 N6         -1.3760   -2.1385    3.1042 N.pl3     1 <0>        -0.8860
     30 O1          4.4876   -3.2640    5.2775 O.2       1 <0>        -0.5199
     31 O2          0.8891   -0.7105    2.2483 O.2       1 <0>        -0.6131
     32 O3         -2.3304   -4.3295    4.0644 O.2       1 <0>        -0.6576
     33 O4         -3.9087   -2.5768    3.1921 O.2       1 <0>        -0.6482
     34 O5          4.0646   -1.5707    3.8113 O.3       1 <0>        -0.6303
     35 S1         -2.6746   -2.9347    3.8647 S.o2      1 <0>         1.5193
     36 H1         -1.9909   -2.9498    8.6676 H         1 <0>         0.1426
     37 H2         -2.6574   -0.5917    8.9847 H         1 <0>         0.1398
     38 H3         -2.0103   -3.9495    6.3897 H         1 <0>         0.1599
     39 H4         -4.5027    1.2042    7.4664 H         1 <0>         0.0574
     40 H5         -2.8343    1.6552    7.8598 H         1 <0>         0.0629
     41 H6          2.0669    1.4503    6.5123 H         1 <0>         0.0614
     42 H7          0.7128    0.3207    6.5714 H         1 <0>         0.0593
     43 H8          1.1978   -2.1858    7.0494 H         1 <0>         0.0841
     44 H9          2.8666   -2.7151    7.2306 H         1 <0>         0.0679
     45 H10         1.2456    0.8722    4.2416 H         1 <0>         0.0826
     46 H11         2.9258    0.3867    4.4518 H         1 <0>         0.0383
     47 H12        -5.1346    1.1449    4.8705 H         1 <0>         0.0556
     48 H13        -3.9688    1.8032    3.7203 H         1 <0>         0.0415
     49 H14         1.7884   -3.2235    4.9909 H         1 <0>         0.0851
     50 H15        -2.2992    2.1152    5.5368 H         1 <0>         0.0639
     51 H16         3.6763   -0.4106    6.8224 H         1 <0>         0.0584
     52 H17        -3.6607    4.0473    5.1410 H         1 <0>         0.0401
     53 H18        -5.0453    3.3508    6.0047 H         1 <0>         0.0440
     54 H19        -3.5987    3.8493    6.9030 H         1 <0>         0.0459
     55 H20         2.1532   -1.2591    9.0761 H         1 <0>         0.0456
     56 H21         3.4121   -0.0103    9.0142 H         1 <0>         0.0366
     57 H22         1.7112    0.4316    8.7697 H         1 <0>         0.0474
     58 H23        -1.0105   -2.5120    0.6824 H         1 <0>         0.0800
     59 H24         0.6776   -1.9980    0.5976 H         1 <0>         0.0681
     60 H25         1.3460   -3.9033    2.0652 H         1 <0>         0.0740
     61 H26        -0.3175   -4.4733    2.1109 H         1 <0>         0.0631
     62 H27         1.2957   -4.1503   -0.5157 H         1 <0>         0.0970
     63 H28         0.0608   -3.2615   -1.4226 H         1 <0>         0.0725
     64 H29         0.1003   -3.1895    4.1787 H         1 <0>         0.0839
     65 H30        -3.5654   -0.5418    3.5977 H         1 <0>         0.4531
     66 H31        -2.1173   -7.1693   -0.6226 H         1 <0>         0.4798
     67 H32        -1.4841   -7.7223   -2.1412 H         1 <0>         0.4881
     68 H33         0.8505   -4.9892   -2.6303 H         1 <0>         0.4801
     69 H34         0.2286   -6.4677   -3.3050 H         1 <0>         0.4806
     70 H35        -1.2539   -5.0876    0.3375 H         1 <0>         0.4689
     71 H36        -1.4476   -1.1318    2.9219 H         1 <0>         0.4505
     72 H37         5.0017   -1.6726    3.5394 H         1 <0>         0.4443
@<TRIPOS>BOND
     1    1    2 ar
     2    1    3 ar
     3    2    4 ar
     4    3    6 ar
     5    4    5 ar
     6    4   10 1
     7    5    6 ar
     8    5   24 1
     9    6   35 1
    10    7   15 1
    11    7   30 2
    12    7   34 1
    13    8   23 1
    14    8   25 am
    15    8   31 2
    16    9   26 1
    17    9   27 1
    18    9   28 1
    19   10   16 1
    20   11   13 1
    21   11   17 1
    22   12   15 1
    23   12   17 1
    24   13   25 1
    25   14   16 1
    26   14   24 1
    27   15   25 1
    28   16   18 1
    29   17   19 1
    30   20   21 1
    31   20   22 1
    32   21   23 1
    33   22   28 1
    34   23   29 1
    35   29   35 1
    36   32   35 2
    37   33   35 2
    38    1   36 1
    39    2   37 1
    40    3   38 1
    41   10   39 1
    42   10   40 1
    43   11   41 1
    44   11   42 1
    45   12   43 1
    46   12   44 1
    47   13   45 1
    48   13   46 1
    49   14   47 1
    50   14   48 1
    51   15   49 1
    52   16   50 1
    53   17   51 1
    54   18   52 1
    55   18   53 1
    56   18   54 1
    57   19   55 1
    58   19   56 1
    59   19   57 1
    60   20   58 1
    61   20   59 1
    62   21   60 1
    63   21   61 1
    64   22   62 1
    65   22   63 1
    66   23   64 1
    67   24   65 1
    68   26   66 1
    69   26   67 1
    70   27   68 1
    71   27   69 1
    72   28   70 1
    73   29   71 1
    74   34   72 1
@<TRIPOS>MOLECULE
1dwc_ligand_315
   72    74     0     0     0
SMALL
USER_CHARGES

mmff94s_NoEstat = 81.64
@<TRIPOS>ATOM
      1 C1          4.4430   -5.7284   -5.0452 C.ar      1 <0>        -0.1945
      2 C2          4.7723   -6.9772   -4.5227 C.ar      1 <0>        -0.0294
      3 C3          4.8164   -4.5723   -4.3665 C.ar      1 <0>        -0.0143
      4 C4          5.4752   -7.0771   -3.3133 C.ar      1 <0>        -0.1552
      5 C5          5.8817   -5.9114   -2.6349 C.ar      1 <0>         0.3076
      6 C6          5.5274   -4.6639   -3.1687 C.ar      1 <0>        -0.4908
      7 C7          3.6135    0.1593    2.1008 C.2       1 <0>         0.5994
      8 C8          2.9466   -1.3973   -0.6457 C.2       1 <0>         0.6462
      9 C9         -0.8076   -5.5695   -2.5894 C.cat     1 <0>         0.6305
     10 C10         5.8299   -8.4394   -2.7673 C.3       1 <0>        -0.0319
     11 C11         5.5437    1.3083   -0.3397 C.3       1 <0>        -0.0918
     12 C12         3.3133    2.1108    0.6168 C.3       1 <0>        -0.0841
     13 C13         4.6073    0.4410   -1.1741 C.3       1 <0>         0.0870
     14 C14         7.1097   -7.2439   -0.9656 C.3       1 <0>         0.2023
     15 C15         3.0358    0.6175    0.7719 C.3       1 <0>         0.0778
     16 C16         6.1562   -8.4055   -1.2654 C.3       1 <0>        -0.0746
     17 C17         4.8054    2.4280    0.4117 C.3       1 <0>        -0.0681
     18 C18         4.8883   -8.3401   -0.4061 C.3       1 <0>        -0.0944
     19 C19         4.9662    3.7744   -0.2964 C.3       1 <0>        -0.0918
     20 C20         1.1084   -2.3549   -2.7950 C.3       1 <0>        -0.1192
     21 C21         2.4114   -3.0756   -2.4306 C.3       1 <0>        -0.0916
     22 C22         0.0368   -3.3189   -3.2890 C.3       1 <0>         0.1883
     23 C23         3.4544   -2.1251   -1.8653 C.3       1 <0>         0.1952
     24 N1          6.5724   -5.9794   -1.4314 N.pl3     1 <0>        -0.7670
     25 N2          3.5421   -0.1648   -0.3619 N.am      1 <0>        -0.4509
     26 N3         -1.1357   -6.4884   -1.5979 N.pl3     1 <0>        -0.8477
     27 N4         -0.9727   -5.9242   -3.9239 N.pl3     1 <0>        -0.8633
     28 N5         -0.3162   -4.2987   -2.2718 N.pl3     1 <0>        -0.7419
     29 N6          4.6097   -2.8934   -1.3678 N.pl3     1 <0>        -0.8860
     30 O1          3.3259    0.6306    3.1909 O.2       1 <0>        -0.5199
     31 O2          2.0528   -1.9046    0.0367 O.2       1 <0>        -0.6131
     32 O3          7.1283   -3.4000   -1.5517 O.2       1 <0>        -0.6576
     33 O4          5.9896   -2.1297   -3.3994 O.2       1 <0>        -0.6482
     34 O5          4.5002   -0.8490    1.9151 O.3       1 <0>        -0.6303
     35 S1          5.9585   -3.1544   -2.3734 S.o2      1 <0>         1.5193
     36 H1          3.8927   -5.6571   -5.9795 H         1 <0>         0.1426
     37 H2          4.4739   -7.8753   -5.0584 H         1 <0>         0.1398
     38 H3          4.5602   -3.5940   -4.7609 H         1 <0>         0.1599
     39 H4          5.0106   -9.1456   -2.9491 H         1 <0>         0.0574
     40 H5          6.7070   -8.8015   -3.3188 H         1 <0>         0.0629
     41 H6          6.0425    0.6652    0.3976 H         1 <0>         0.0614
     42 H7          6.3377    1.7214   -0.9727 H         1 <0>         0.0593
     43 H8          2.7432    2.4779   -0.2478 H         1 <0>         0.0841
     44 H9          2.9432    2.6669    1.4876 H         1 <0>         0.0679
     45 H10         4.1201    1.0372   -1.9545 H         1 <0>         0.0826
     46 H11         5.1818   -0.3450   -1.6740 H         1 <0>         0.0383
     47 H12         7.3054   -7.1787    0.1106 H         1 <0>         0.0556
     48 H13         8.0743   -7.4218   -1.4567 H         1 <0>         0.0415
     49 H14         1.9534    0.4590    0.8478 H         1 <0>         0.0851
     50 H15         6.6587   -9.3447   -1.0033 H         1 <0>         0.0639
     51 H16         5.2803    2.5350    1.3953 H         1 <0>         0.0584
     52 H17         4.0047   -8.1971   -1.0352 H         1 <0>         0.0401
     53 H18         4.7606   -9.2664    0.1619 H         1 <0>         0.0440
     54 H19         4.9459   -7.5073    0.3011 H         1 <0>         0.0459
     55 H20         5.9624    4.1882   -0.1137 H         1 <0>         0.0456
     56 H21         4.8337    3.6592   -1.3763 H         1 <0>         0.0366
     57 H22         4.2237    4.4910    0.0673 H         1 <0>         0.0474
     58 H23         0.7341   -1.8112   -1.9193 H         1 <0>         0.0800
     59 H24         1.3022   -1.6154   -3.5806 H         1 <0>         0.0681
     60 H25         2.8001   -3.5947   -3.3165 H         1 <0>         0.0740
     61 H26         2.2014   -3.8505   -1.6824 H         1 <0>         0.0631
     62 H27         0.3698   -3.8564   -4.1826 H         1 <0>         0.0970
     63 H28        -0.8729   -2.7667   -3.5456 H         1 <0>         0.0725
     64 H29         3.7902   -1.3903   -2.5956 H         1 <0>         0.0839
     65 H30         6.9078   -5.1162   -1.0217 H         1 <0>         0.4531
     66 H31        -1.0297   -6.2739   -0.6100 H         1 <0>         0.4798
     67 H32        -1.4919   -7.4107   -1.8376 H         1 <0>         0.4881
     68 H33        -0.7427   -5.2767   -4.6738 H         1 <0>         0.4801
     69 H34        -1.3290   -6.8404   -4.1850 H         1 <0>         0.4806
     70 H35        -0.2060   -4.0674   -1.2834 H         1 <0>         0.4689
     71 H36         4.7395   -2.8961   -0.3505 H         1 <0>         0.4505
     72 H37         4.8863   -1.1580    2.7624 H         1 <0>         0.4443
@<TRIPOS>BOND
     1    1    2 ar
     2    1    3 ar
     3    2    4 ar
     4    3    6 ar
     5    4    5 ar
     6    4   10 1
     7    5    6 ar
     8    5   24 1
     9    6   35 1
    10    7   15 1
    11    7   30 2
    12    7   34 1
    13    8   23 1
    14    8   25 am
    15    8   31 2
    16    9   26 1
    17    9   27 1
    18    9   28 1
    19   10   16 1
    20   11   13 1
    21   11   17 1
    22   12   15 1
    23   12   17 1
    24   13   25 1
    25   14   16 1
    26   14   24 1
    27   15   25 1
    28   16   18 1
    29   17   19 1
    30   20   21 1
    31   20   22 1
    32   21   23 1
    33   22   28 1
    34   23   29 1
    35   29   35 1
    36   32   35 2
    37   33   35 2
    38    1   36 1
    39    2   37 1
    40    3   38 1
    41   10   39 1
    42   10   40 1
    43   11   41 1
    44   11   42 1
    45   12   43 1
    46   12   44 1
    47   13   45 1
    48   13   46 1
    49   14   47 1
    50   14   48 1
    51   15   49 1
    52   16   50 1
    53   17   51 1
    54   18   52 1
    55   18   53 1
    56   18   54 1
    57   19   55 1
    58   19   56 1
    59   19   57 1
    60   20   58 1
    61   20   59 1
    62   21   60 1
    63   21   61 1
    64   22   62 1
    65   22   63 1
    66   23   64 1
    67   24   65 1
    68   26   66 1
    69   26   67 1
    70   27   68 1
    71   27   69 1
    72   28   70 1
    73   29   71 1
    74   34   72 1
@<TRIPOS>MOLECULE
1dwc_ligand_316
   72    74     0     0     0
SMALL
USER_CHARGES

mmff94s_NoEstat = 81.65
@<TRIPOS>ATOM
      1 C1         -1.7131   -6.1679    5.4027 C.ar      1 <0>        -0.1945
      2 C2         -2.6354   -6.9110    4.6688 C.ar      1 <0>        -0.0294
      3 C3         -1.6914   -4.7811    5.2884 C.ar      1 <0>        -0.0143
      4 C4         -3.5460   -6.2689    3.8175 C.ar      1 <0>        -0.1552
      5 C5         -3.5113   -4.8675    3.6742 C.ar      1 <0>         0.3076
      6 C6         -2.5860   -4.1361    4.4328 C.ar      1 <0>        -0.4908
      7 C7          2.9525   -3.7210    4.6633 C.2       1 <0>         0.5994
      8 C8          0.8654   -1.4427    3.2413 C.2       1 <0>         0.6462
      9 C9         -0.0382   -5.7761   -1.6019 C.cat     1 <0>         0.6305
     10 C10        -4.5336   -7.0906    3.0241 C.3       1 <0>        -0.0319
     11 C11         3.8997   -0.0663    4.7953 C.3       1 <0>        -0.0918
     12 C12         3.0155   -1.8674    6.2922 C.3       1 <0>        -0.0841
     13 C13         3.1900   -0.7124    3.6122 C.3       1 <0>         0.0870
     14 C14        -5.2339   -4.9531    1.9164 C.3       1 <0>         0.2023
     15 C15         2.2314   -2.4635    5.1202 C.3       1 <0>         0.0778
     16 C16        -5.7342   -6.2437    2.5735 C.3       1 <0>        -0.0746
     17 C17         4.2756   -1.1130    5.8473 C.3       1 <0>        -0.0681
     18 C18        -6.6285   -7.0325    1.6209 C.3       1 <0>        -0.0944
     19 C19         4.9663   -0.4582    7.0420 C.3       1 <0>        -0.0918
     20 C20        -0.5404   -4.8511    2.0458 C.3       1 <0>        -0.1192
     21 C21         0.3004   -3.5693    2.0376 C.3       1 <0>        -0.0916
     22 C22        -0.1768   -5.7847    0.8978 C.3       1 <0>         0.1883
     23 C23        -0.0078   -2.6730    3.2260 C.3       1 <0>         0.1952
     24 N1         -4.4016   -4.2041    2.8388 N.pl3     1 <0>        -0.7670
     25 N2          2.0252   -1.5038    4.0223 N.am      1 <0>        -0.4509
     26 N3         -0.2239   -5.1414   -2.8257 N.pl3     1 <0>        -0.8477
     27 N4          0.4773   -7.0675   -1.5794 N.pl3     1 <0>        -0.8633
     28 N5         -0.3589   -5.1430   -0.3963 N.pl3     1 <0>        -0.7419
     29 N6         -1.3760   -2.1385    3.1042 N.pl3     1 <0>        -0.8860
     30 O1          3.7741   -3.7699    3.7601 O.2       1 <0>        -0.5199
     31 O2          0.5240   -0.4555    2.5844 O.2       1 <0>        -0.6131
     32 O3         -3.7998   -1.8872    3.9383 O.2       1 <0>        -0.6576
     33 O4         -1.9207   -1.9310    5.6091 O.2       1 <0>        -0.6482
     34 O5          2.5581   -4.7916    5.3952 O.3       1 <0>        -0.6303
     35 S1         -2.5018   -2.3799    4.3583 S.o2      1 <0>         1.5193
     36 H1         -1.0144   -6.6704    6.0659 H         1 <0>         0.1426
     37 H2         -2.6471   -7.9940    4.7666 H         1 <0>         0.1398
     38 H3         -0.9815   -4.1915    5.8598 H         1 <0>         0.1599
     39 H4         -4.0133   -7.5078    2.1526 H         1 <0>         0.0574
     40 H5         -4.8948   -7.9296    3.6315 H         1 <0>         0.0629
     41 H6          4.7987    0.4538    4.4437 H         1 <0>         0.0614
     42 H7          3.2442    0.6909    5.2441 H         1 <0>         0.0593
     43 H8          2.3586   -1.1679    6.8273 H         1 <0>         0.0841
     44 H9          3.2888   -2.6509    7.0104 H         1 <0>         0.0679
     45 H10         2.8945    0.0639    2.8988 H         1 <0>         0.0826
     46 H11         3.8704   -1.3909    3.0835 H         1 <0>         0.0383
     47 H12        -4.6591   -5.1800    1.0099 H         1 <0>         0.0556
     48 H13        -6.0820   -4.3285    1.6145 H         1 <0>         0.0415
     49 H14         1.2607   -2.8048    5.4936 H         1 <0>         0.0851
     50 H15        -6.3313   -5.9801    3.4570 H         1 <0>         0.0639
     51 H16         4.9839   -1.8245    5.4052 H         1 <0>         0.0584
     52 H17        -7.5930   -6.5313    1.4955 H         1 <0>         0.0401
     53 H18        -6.1572   -7.1236    0.6378 H         1 <0>         0.0440
     54 H19        -6.8113   -8.0386    2.0100 H         1 <0>         0.0459
     55 H20         4.4464   -0.7091    7.9715 H         1 <0>         0.0456
     56 H21         6.0020   -0.8015    7.1231 H         1 <0>         0.0366
     57 H22         4.9717    0.6305    6.9335 H         1 <0>         0.0474
     58 H23        -0.4002   -5.3741    2.9994 H         1 <0>         0.0800
     59 H24        -1.6035   -4.5964    1.9658 H         1 <0>         0.0681
     60 H25         0.1357   -3.0322    1.0943 H         1 <0>         0.0740
     61 H26         1.3654   -3.8328    2.0643 H         1 <0>         0.0631
     62 H27        -0.7862   -6.6937    0.9190 H         1 <0>         0.0970
     63 H28         0.8744   -6.0800    0.9749 H         1 <0>         0.0725
     64 H29         0.1003   -3.1895    4.1787 H         1 <0>         0.0839
     65 H30        -4.2892   -3.2059    2.7109 H         1 <0>         0.4531
     66 H31        -0.5995   -4.1991   -2.8910 H         1 <0>         0.4798
     67 H32         0.0114   -5.6094   -3.6979 H         1 <0>         0.4881
     68 H33         0.6256   -7.5607   -0.7023 H         1 <0>         0.4801
     69 H34         0.7207   -7.5524   -2.4398 H         1 <0>         0.4806
     70 H35        -0.7354   -4.1951   -0.4451 H         1 <0>         0.4689
     71 H36        -1.4850   -1.3266    2.4871 H         1 <0>         0.4505
     72 H37         3.0115   -5.6147    5.1139 H         1 <0>         0.4443
@<TRIPOS>BOND
     1    1    2 ar
     2    1    3 ar
     3    2    4 ar
     4    3    6 ar
     5    4    5 ar
     6    4   10 1
     7    5    6 ar
     8    5   24 1
     9    6   35 1
    10    7   15 1
    11    7   30 2
    12    7   34 1
    13    8   23 1
    14    8   25 am
    15    8   31 2
    16    9   26 1
    17    9   27 1
    18    9   28 1
    19   10   16 1
    20   11   13 1
    21   11   17 1
    22   12   15 1
    23   12   17 1
    24   13   25 1
    25   14   16 1
    26   14   24 1
    27   15   25 1
    28   16   18 1
    29   17   19 1
    30   20   21 1
    31   20   22 1
    32   21   23 1
    33   22   28 1
    34   23   29 1
    35   29   35 1
    36   32   35 2
    37   33   35 2
    38    1   36 1
    39    2   37 1
    40    3   38 1
    41   10   39 1
    42   10   40 1
    43   11   41 1
    44   11   42 1
    45   12   43 1
    46   12   44 1
    47   13   45 1
    48   13   46 1
    49   14   47 1
    50   14   48 1
    51   15   49 1
    52   16   50 1
    53   17   51 1
    54   18   52 1
    55   18   53 1
    56   18   54 1
    57   19   55 1
    58   19   56 1
    59   19   57 1
    60   20   58 1
    61   20   59 1
    62   21   60 1
    63   21   61 1
    64   22   62 1
    65   22   63 1
    66   23   64 1
    67   24   65 1
    68   26   66 1
    69   26   67 1
    70   27   68 1
    71   27   69 1
    72   28   70 1
    73   29   71 1
    74   34   72 1
@<TRIPOS>MOLECULE
1dwc_ligand_317
   72    74     0     0     0
SMALL
USER_CHARGES

mmff94s_NoEstat = 81.67
@<TRIPOS>ATOM
      1 C1          3.2154   -6.5240   -1.2843 C.ar      1 <0>        -0.1945
      2 C2          2.0271   -6.9417   -0.6886 C.ar      1 <0>        -0.0294
      3 C3          3.1981   -5.4928   -2.2187 C.ar      1 <0>        -0.0143
      4 C4          0.8124   -6.3257   -1.0224 C.ar      1 <0>        -0.1552
      5 C5          0.7824   -5.3007   -1.9888 C.ar      1 <0>         0.3076
      6 C6          1.9909   -4.8841   -2.5656 C.ar      1 <0>        -0.4908
      7 C7          1.9683   -0.7067    2.3504 C.2       1 <0>         0.5994
      8 C8          2.9466   -1.3973   -0.6457 C.2       1 <0>         0.6462
      9 C9          8.2869   -3.0539    0.3474 C.cat     1 <0>         0.6305
     10 C10        -0.4668   -6.7962   -0.3725 C.3       1 <0>        -0.0319
     11 C11         2.1854   -3.9944    1.9686 C.3       1 <0>        -0.0918
     12 C12         3.8131   -2.2556    2.8966 C.3       1 <0>        -0.0841
     13 C13         2.8391   -3.5657    0.6593 C.3       1 <0>         0.0870
     14 C14        -1.6766   -5.2108   -1.8920 C.3       1 <0>         0.2023
     15 C15         3.2228   -1.3678    1.8038 C.3       1 <0>         0.0778
     16 C16        -1.5644   -5.7236   -0.4525 C.3       1 <0>        -0.0746
     17 C17         2.9444   -3.4881    3.2059 C.3       1 <0>        -0.0681
     18 C18        -2.9001   -6.2753    0.0382 C.3       1 <0>        -0.0944
     19 C19         3.7998   -4.5942    3.8264 C.3       1 <0>        -0.0918
     20 C20         5.7415   -1.0578   -1.6401 C.3       1 <0>        -0.1192
     21 C21         4.5564   -1.3488   -2.5679 C.3       1 <0>        -0.0916
     22 C22         6.4279   -2.3331   -1.1666 C.3       1 <0>         0.1883
     23 C23         3.4544   -2.1251   -1.8653 C.3       1 <0>         0.1952
     24 N1         -0.4061   -4.6718   -2.3389 N.pl3     1 <0>        -0.7670
     25 N2          2.9741   -2.1051    0.5595 N.am      1 <0>        -0.4509
     26 N3          9.3421   -2.7528    1.2022 N.pl3     1 <0>        -0.8477
     27 N4          7.9744   -4.3862    0.0994 N.pl3     1 <0>        -0.8633
     28 N5          7.5354   -2.0461   -0.2663 N.pl3     1 <0>        -0.7419
     29 N6          2.2741   -2.2179   -2.7432 N.pl3     1 <0>        -0.8860
     30 O1          1.9215   -0.0131    3.3555 O.2       1 <0>        -0.5199
     31 O2          2.5356   -0.2394   -0.7559 O.2       1 <0>        -0.6131
     32 O3          3.2466   -3.7694   -4.5546 O.2       1 <0>        -0.6576
     33 O4          0.7526   -3.5048   -4.3692 O.2       1 <0>        -0.6482
     34 O5          0.8975   -0.9928    1.5701 O.3       1 <0>        -0.6303
     35 S1          2.0591   -3.5786   -3.7438 S.o2      1 <0>         1.5193
     36 H1          4.1546   -7.0004   -1.0168 H         1 <0>         0.1426
     37 H2          2.0504   -7.7462    0.0426 H         1 <0>         0.1398
     38 H3          4.1183   -5.1550   -2.6846 H         1 <0>         0.1599
     39 H4         -0.7932   -7.7137   -0.8784 H         1 <0>         0.0574
     40 H5         -0.2825   -7.0422    0.6805 H         1 <0>         0.0629
     41 H6          1.1666   -3.5855    1.9944 H         1 <0>         0.0614
     42 H7          2.0785   -5.0851    1.9962 H         1 <0>         0.0593
     43 H8          4.8081   -2.5873    2.5693 H         1 <0>         0.0841
     44 H9          3.9682   -1.6833    3.8202 H         1 <0>         0.0679
     45 H10         3.8460   -3.9906    0.5720 H         1 <0>         0.0826
     46 H11         2.2519   -3.9401   -0.1848 H         1 <0>         0.0383
     47 H12        -1.9859   -6.0193   -2.5661 H         1 <0>         0.0556
     48 H13        -2.4387   -4.4261   -1.9562 H         1 <0>         0.0415
     49 H14         3.9207   -0.5495    1.5893 H         1 <0>         0.0851
     50 H15        -1.2856   -4.8844    0.1991 H         1 <0>         0.0639
     51 H16         2.1980   -3.2111    3.9613 H         1 <0>         0.0584
     52 H17        -3.6114   -5.4623    0.2119 H         1 <0>         0.0401
     53 H18        -3.3299   -6.9569   -0.7020 H         1 <0>         0.0440
     54 H19        -2.7683   -6.8236    0.9758 H         1 <0>         0.0459
     55 H20         3.2622   -5.0822    4.6449 H         1 <0>         0.0456
     56 H21         4.0499   -5.3522    3.0782 H         1 <0>         0.0366
     57 H22         4.7318   -4.1818    4.2242 H         1 <0>         0.0474
     58 H23         6.4686   -0.4251   -2.1633 H         1 <0>         0.0800
     59 H24         5.3954   -0.5006   -0.7619 H         1 <0>         0.0681
     60 H25         4.9119   -1.8947   -3.4517 H         1 <0>         0.0740
     61 H26         4.1396   -0.4017   -2.9334 H         1 <0>         0.0631
     62 H27         6.8136   -2.9120   -2.0118 H         1 <0>         0.0970
     63 H28         5.7150   -2.9614   -0.6232 H         1 <0>         0.0725
     64 H29         3.7703   -3.1244   -1.5692 H         1 <0>         0.0839
     65 H30        -0.3888   -3.9943   -3.0913 H         1 <0>         0.4531
     66 H31         9.6078   -1.7941    1.4112 H         1 <0>         0.4798
     67 H32         9.8840   -3.4919    1.6440 H         1 <0>         0.4881
     68 H33         7.2094   -4.6418   -0.5202 H         1 <0>         0.4801
     69 H34         8.5024   -5.1402    0.5323 H         1 <0>         0.4806
     70 H35         7.7887   -1.0776   -0.0648 H         1 <0>         0.4689
     71 H36         1.4502   -1.6870   -2.4414 H         1 <0>         0.4505
     72 H37         0.0762   -0.5760    1.9078 H         1 <0>         0.4443
@<TRIPOS>BOND
     1    1    2 ar
     2    1    3 ar
     3    2    4 ar
     4    3    6 ar
     5    4    5 ar
     6    4   10 1
     7    5    6 ar
     8    5   24 1
     9    6   35 1
    10    7   15 1
    11    7   30 2
    12    7   34 1
    13    8   23 1
    14    8   25 am
    15    8   31 2
    16    9   26 1
    17    9   27 1
    18    9   28 1
    19   10   16 1
    20   11   13 1
    21   11   17 1
    22   12   15 1
    23   12   17 1
    24   13   25 1
    25   14   16 1
    26   14   24 1
    27   15   25 1
    28   16   18 1
    29   17   19 1
    30   20   21 1
    31   20   22 1
    32   21   23 1
    33   22   28 1
    34   23   29 1
    35   29   35 1
    36   32   35 2
    37   33   35 2
    38    1   36 1
    39    2   37 1
    40    3   38 1
    41   10   39 1
    42   10   40 1
    43   11   41 1
    44   11   42 1
    45   12   43 1
    46   12   44 1
    47   13   45 1
    48   13   46 1
    49   14   47 1
    50   14   48 1
    51   15   49 1
    52   16   50 1
    53   17   51 1
    54   18   52 1
    55   18   53 1
    56   18   54 1
    57   19   55 1
    58   19   56 1
    59   19   57 1
    60   20   58 1
    61   20   59 1
    62   21   60 1
    63   21   61 1
    64   22   62 1
    65   22   63 1
    66   23   64 1
    67   24   65 1
    68   26   66 1
    69   26   67 1
    70   27   68 1
    71   27   69 1
    72   28   70 1
    73   29   71 1
    74   34   72 1
@<TRIPOS>MOLECULE
1dwc_ligand_318
   72    74     0     0     0
SMALL
USER_CHARGES

mmff94s_NoEstat = 81.70
@<TRIPOS>ATOM
      1 C1          3.2154   -6.5240   -1.2843 C.ar      1 <0>        -0.1945
      2 C2          2.0271   -6.9417   -0.6886 C.ar      1 <0>        -0.0294
      3 C3          3.1981   -5.4928   -2.2187 C.ar      1 <0>        -0.0143
      4 C4          0.8124   -6.3257   -1.0224 C.ar      1 <0>        -0.1552
      5 C5          0.7824   -5.3007   -1.9888 C.ar      1 <0>         0.3076
      6 C6          1.9909   -4.8841   -2.5656 C.ar      1 <0>        -0.4908
      7 C7          2.4038   -0.4910    2.4030 C.2       1 <0>         0.5994
      8 C8          2.9466   -1.3973   -0.6457 C.2       1 <0>         0.6462
      9 C9          6.5364    0.5009   -5.9324 C.cat     1 <0>         0.6305
     10 C10        -0.4668   -6.7962   -0.3725 C.3       1 <0>        -0.0319
     11 C11         3.9178   -3.4419    2.3602 C.3       1 <0>        -0.0918
     12 C12         4.8012   -1.0545    2.5913 C.3       1 <0>        -0.0841
     13 C13         4.0430   -3.0960    0.8803 C.3       1 <0>         0.0870
     14 C14        -1.6766   -5.2108   -1.8920 C.3       1 <0>         0.2023
     15 C15         3.6790   -0.7248    1.6100 C.3       1 <0>         0.0778
     16 C16        -1.5644   -5.7236   -0.4525 C.3       1 <0>        -0.0746
     17 C17         4.6242   -2.4243    3.2705 C.3       1 <0>        -0.0681
     18 C18        -2.9001   -6.2753    0.0382 C.3       1 <0>        -0.0944
     19 C19         5.9763   -2.9527    3.7531 C.3       1 <0>        -0.0918
     20 C20         4.0666    0.0061   -3.0917 C.3       1 <0>        -0.1192
     21 C21         4.5564   -1.3488   -2.5679 C.3       1 <0>        -0.0916
     22 C22         5.1498    0.7503   -3.8628 C.3       1 <0>         0.1883
     23 C23         3.4544   -2.1251   -1.8653 C.3       1 <0>         0.1952
     24 N1         -0.4061   -4.6718   -2.3389 N.pl3     1 <0>        -0.7670
     25 N2          3.5192   -1.7560    0.5781 N.am      1 <0>        -0.4509
     26 N3          6.9409   -0.2356   -7.0409 N.pl3     1 <0>        -0.8477
     27 N4          7.0867    1.7598   -5.7173 N.pl3     1 <0>        -0.8633
     28 N5          5.5893    0.0019   -5.0317 N.pl3     1 <0>        -0.7419
     29 N6          2.2741   -2.2179   -2.7432 N.pl3     1 <0>        -0.8860
     30 O1          2.2729    0.3351    3.2940 O.2       1 <0>        -0.5199
     31 O2          2.0685   -0.5400   -0.7710 O.2       1 <0>        -0.6131
     32 O3          3.2466   -3.7694   -4.5546 O.2       1 <0>        -0.6576
     33 O4          0.7526   -3.5048   -4.3692 O.2       1 <0>        -0.6482
     34 O5          1.4223   -1.3294    1.9894 O.3       1 <0>        -0.6303
     35 S1          2.0591   -3.5786   -3.7438 S.o2      1 <0>         1.5193
     36 H1          4.1546   -7.0004   -1.0168 H         1 <0>         0.1426
     37 H2          2.0504   -7.7462    0.0426 H         1 <0>         0.1398
     38 H3          4.1183   -5.1550   -2.6846 H         1 <0>         0.1599
     39 H4         -0.7932   -7.7137   -0.8784 H         1 <0>         0.0574
     40 H5         -0.2825   -7.0422    0.6805 H         1 <0>         0.0629
     41 H6          2.8510   -3.4591    2.6203 H         1 <0>         0.0614
     42 H7          4.2939   -4.4553    2.5428 H         1 <0>         0.0593
     43 H8          5.7524   -1.0436    2.0413 H         1 <0>         0.0841
     44 H9          4.8832   -0.2779    3.3625 H         1 <0>         0.0679
     45 H10         5.0934   -3.1114    0.5668 H         1 <0>         0.0826
     46 H11         3.5122   -3.8428    0.2819 H         1 <0>         0.0383
     47 H12        -1.9859   -6.0193   -2.5661 H         1 <0>         0.0556
     48 H13        -2.4387   -4.4261   -1.9562 H         1 <0>         0.0415
     49 H14         3.9015    0.2290    1.1168 H         1 <0>         0.0851
     50 H15        -1.2856   -4.8844    0.1991 H         1 <0>         0.0639
     51 H16         4.0032   -2.2947    4.1661 H         1 <0>         0.0584
     52 H17        -3.6114   -5.4623    0.2119 H         1 <0>         0.0401
     53 H18        -3.3299   -6.9569   -0.7020 H         1 <0>         0.0440
     54 H19        -2.7683   -6.8236    0.9758 H         1 <0>         0.0459
     55 H20         5.8782   -3.4157    4.7396 H         1 <0>         0.0456
     56 H21         6.3665   -3.7022    3.0580 H         1 <0>         0.0366
     57 H22         6.7034   -2.1384    3.8257 H         1 <0>         0.0474
     58 H23         3.1961   -0.1462   -3.7411 H         1 <0>         0.0800
     59 H24         3.7428    0.6319   -2.2522 H         1 <0>         0.0681
     60 H25         5.4094   -1.1917   -1.8946 H         1 <0>         0.0740
     61 H26         4.9285   -1.9502   -3.4070 H         1 <0>         0.0631
     62 H27         6.0226    0.9442   -3.2312 H         1 <0>         0.0970
     63 H28         4.7647    1.7133   -4.2128 H         1 <0>         0.0725
     64 H29         3.7703   -3.1244   -1.5692 H         1 <0>         0.0839
     65 H30        -0.3888   -3.9943   -3.0913 H         1 <0>         0.4531
     66 H31         6.5676   -1.1605   -7.2371 H         1 <0>         0.4798
     67 H32         7.6308    0.1346   -7.6906 H         1 <0>         0.4881
     68 H33         6.8135    2.3249   -4.9169 H         1 <0>         0.4801
     69 H34         7.7763    2.1491   -6.3557 H         1 <0>         0.4806
     70 H35         5.2033   -0.9252   -5.2162 H         1 <0>         0.4689
     71 H36         1.4502   -1.6870   -2.4414 H         1 <0>         0.4505
     72 H37         0.5902   -1.1952    2.4913 H         1 <0>         0.4443
@<TRIPOS>BOND
     1    1    2 ar
     2    1    3 ar
     3    2    4 ar
     4    3    6 ar
     5    4    5 ar
     6    4   10 1
     7    5    6 ar
     8    5   24 1
     9    6   35 1
    10    7   15 1
    11    7   30 2
    12    7   34 1
    13    8   23 1
    14    8   25 am
    15    8   31 2
    16    9   26 1
    17    9   27 1
    18    9   28 1
    19   10   16 1
    20   11   13 1
    21   11   17 1
    22   12   15 1
    23   12   17 1
    24   13   25 1
    25   14   16 1
    26   14   24 1
    27   15   25 1
    28   16   18 1
    29   17   19 1
    30   20   21 1
    31   20   22 1
    32   21   23 1
    33   22   28 1
    34   23   29 1
    35   29   35 1
    36   32   35 2
    37   33   35 2
    38    1   36 1
    39    2   37 1
    40    3   38 1
    41   10   39 1
    42   10   40 1
    43   11   41 1
    44   11   42 1
    45   12   43 1
    46   12   44 1
    47   13   45 1
    48   13   46 1
    49   14   47 1
    50   14   48 1
    51   15   49 1
    52   16   50 1
    53   17   51 1
    54   18   52 1
    55   18   53 1
    56   18   54 1
    57   19   55 1
    58   19   56 1
    59   19   57 1
    60   20   58 1
    61   20   59 1
    62   21   60 1
    63   21   61 1
    64   22   62 1
    65   22   63 1
    66   23   64 1
    67   24   65 1
    68   26   66 1
    69   26   67 1
    70   27   68 1
    71   27   69 1
    72   28   70 1
    73   29   71 1
    74   34   72 1
@<TRIPOS>MOLECULE
1dwc_ligand_319
   72    74     0     0     0
SMALL
USER_CHARGES

mmff94s_NoEstat = 81.74
@<TRIPOS>ATOM
      1 C1         -1.3865    0.4483    6.9697 C.ar      1 <0>        -0.1945
      2 C2         -0.5343   -0.2259    7.8418 C.ar      1 <0>        -0.0294
      3 C3         -1.9752   -0.2339    5.9091 C.ar      1 <0>        -0.0143
      4 C4         -0.2690   -1.5907    7.6596 C.ar      1 <0>        -0.1552
      5 C5         -0.8382   -2.2818    6.5715 C.ar      1 <0>         0.3076
      6 C6         -1.7052   -1.5894    5.7138 C.ar      1 <0>        -0.4908
      7 C7          3.5686   -3.4379    3.7704 C.2       1 <0>         0.5994
      8 C8          0.8654   -1.4427    3.2413 C.2       1 <0>         0.6462
      9 C9         -0.8941   -7.9715   -0.0876 C.cat     1 <0>         0.6305
     10 C10         0.6628   -2.3037    8.6102 C.3       1 <0>        -0.0319
     11 C11         3.4440   -0.0674    5.4719 C.3       1 <0>        -0.0918
     12 C12         3.1682   -2.4952    6.0163 C.3       1 <0>        -0.0841
     13 C13         2.9000   -0.3276    4.0730 C.3       1 <0>         0.0870
     14 C14         0.4361   -4.3139    7.1291 C.3       1 <0>         0.2023
     15 C15         2.5392   -2.7371    4.6417 C.3       1 <0>         0.0778
     16 C16         0.4391   -3.8238    8.5808 C.3       1 <0>        -0.0746
     17 C17         4.1435   -1.3104    6.0281 C.3       1 <0>        -0.0681
     18 C18         1.5050   -4.5457    9.4006 C.3       1 <0>        -0.0944
     19 C19         4.6673   -1.0527    7.4396 C.3       1 <0>        -0.0918
     20 C20        -0.5404   -4.8511    2.0458 C.3       1 <0>        -0.1192
     21 C21         0.3004   -3.5693    2.0376 C.3       1 <0>        -0.0916
     22 C22        -0.1768   -5.7847    0.8978 C.3       1 <0>         0.1883
     23 C23        -0.0078   -2.6730    3.2260 C.3       1 <0>         0.1952
     24 N1         -0.5939   -3.6341    6.3665 N.pl3     1 <0>        -0.7670
     25 N2          2.0252   -1.5038    4.0223 N.am      1 <0>        -0.4509
     26 N3         -1.6898   -9.1122   -0.0609 N.pl3     1 <0>        -0.8477
     27 N4          0.0239   -7.8094   -1.1196 N.pl3     1 <0>        -0.8633
     28 N5         -0.9984   -6.9865    0.9003 N.pl3     1 <0>        -0.7419
     29 N6         -1.3760   -2.1385    3.1042 N.pl3     1 <0>        -0.8860
     30 O1          4.3335   -2.8779    2.9993 O.2       1 <0>        -0.5199
     31 O2          0.5240   -0.4555    2.5844 O.2       1 <0>        -0.6131
     32 O3         -2.5906   -3.7967    4.6561 O.2       1 <0>        -0.6576
     33 O4         -3.7019   -1.6181    4.0705 O.2       1 <0>        -0.6482
     34 O5          3.5241   -4.7791    3.9616 O.3       1 <0>        -0.6303
     35 S1         -2.5018   -2.3799    4.3583 S.o2      1 <0>         1.5193
     36 H1         -1.5937    1.5043    7.1196 H         1 <0>         0.1426
     37 H2         -0.0811    0.3144    8.6695 H         1 <0>         0.1398
     38 H3         -2.6454    0.2794    5.2269 H         1 <0>         0.1599
     39 H4          1.6952   -2.0650    8.3246 H         1 <0>         0.0574
     40 H5          0.5054   -1.9381    9.6324 H         1 <0>         0.0629
     41 H6          4.1435    0.7764    5.4419 H         1 <0>         0.0614
     42 H7          2.6191    0.2214    6.1357 H         1 <0>         0.0593
     43 H8          2.3618   -2.2928    6.7345 H         1 <0>         0.0841
     44 H9          3.6813   -3.3988    6.3690 H         1 <0>         0.0679
     45 H10         2.3679    0.5618    3.7197 H         1 <0>         0.0826
     46 H11         3.7232   -0.5081    3.3711 H         1 <0>         0.0383
     47 H12         1.4122   -4.1368    6.6605 H         1 <0>         0.0556
     48 H13         0.2510   -5.3933    7.0942 H         1 <0>         0.0415
     49 H14         1.7211   -3.4548    4.7590 H         1 <0>         0.0851
     50 H15        -0.5391   -4.0450    9.0289 H         1 <0>         0.0639
     51 H16         5.0063   -1.5479    5.3937 H         1 <0>         0.0584
     52 H17         1.2125   -5.5843    9.5819 H         1 <0>         0.0401
     53 H18         2.4629   -4.5449    8.8719 H         1 <0>         0.0440
     54 H19         1.6448   -4.0535   10.3677 H         1 <0>         0.0459
     55 H20         4.2777   -1.8006    8.1367 H         1 <0>         0.0456
     56 H21         5.7602   -1.1000    7.4588 H         1 <0>         0.0366
     57 H22         4.3590   -0.0627    7.7891 H         1 <0>         0.0474
     58 H23        -0.4002   -5.3741    2.9994 H         1 <0>         0.0800
     59 H24        -1.6035   -4.5964    1.9658 H         1 <0>         0.0681
     60 H25         0.1357   -3.0322    1.0943 H         1 <0>         0.0740
     61 H26         1.3654   -3.8328    2.0643 H         1 <0>         0.0631
     62 H27         0.8739   -6.0869    0.9513 H         1 <0>         0.0970
     63 H28        -0.3350   -5.2785   -0.0598 H         1 <0>         0.0725
     64 H29         0.1003   -3.1895    4.1787 H         1 <0>         0.0839
     65 H30        -0.9636   -4.0687    5.5300 H         1 <0>         0.4531
     66 H31        -2.3726   -9.2741    0.6745 H         1 <0>         0.4798
     67 H32        -1.6070   -9.8240   -0.7830 H         1 <0>         0.4881
     68 H33         0.6213   -6.9877   -1.1696 H         1 <0>         0.4801
     69 H34         0.1212   -8.5082   -1.8524 H         1 <0>         0.4806
     70 H35        -1.6814   -7.1337    1.6450 H         1 <0>         0.4689
     71 H36        -1.4850   -1.3266    2.4871 H         1 <0>         0.4505
     72 H37         4.1809   -5.2504    3.4059 H         1 <0>         0.4443
@<TRIPOS>BOND
     1    1    2 ar
     2    1    3 ar
     3    2    4 ar
     4    3    6 ar
     5    4    5 ar
     6    4   10 1
     7    5    6 ar
     8    5   24 1
     9    6   35 1
    10    7   15 1
    11    7   30 2
    12    7   34 1
    13    8   23 1
    14    8   25 am
    15    8   31 2
    16    9   26 1
    17    9   27 1
    18    9   28 1
    19   10   16 1
    20   11   13 1
    21   11   17 1
    22   12   15 1
    23   12   17 1
    24   13   25 1
    25   14   16 1
    26   14   24 1
    27   15   25 1
    28   16   18 1
    29   17   19 1
    30   20   21 1
    31   20   22 1
    32   21   23 1
    33   22   28 1
    34   23   29 1
    35   29   35 1
    36   32   35 2
    37   33   35 2
    38    1   36 1
    39    2   37 1
    40    3   38 1
    41   10   39 1
    42   10   40 1
    43   11   41 1
    44   11   42 1
    45   12   43 1
    46   12   44 1
    47   13   45 1
    48   13   46 1
    49   14   47 1
    50   14   48 1
    51   15   49 1
    52   16   50 1
    53   17   51 1
    54   18   52 1
    55   18   53 1
    56   18   54 1
    57   19   55 1
    58   19   56 1
    59   19   57 1
    60   20   58 1
    61   20   59 1
    62   21   60 1
    63   21   61 1
    64   22   62 1
    65   22   63 1
    66   23   64 1
    67   24   65 1
    68   26   66 1
    69   26   67 1
    70   27   68 1
    71   27   69 1
    72   28   70 1
    73   29   71 1
    74   34   72 1
@<TRIPOS>MOLECULE
1dwc_ligand_320
   72    74     0     0     0
SMALL
USER_CHARGES

mmff94s_NoEstat = 81.75
@<TRIPOS>ATOM
      1 C1          3.8129   -2.1800    0.5043 C.ar      1 <0>        -0.1945
      2 C2          4.6808   -1.4544    1.3175 C.ar      1 <0>        -0.0294
      3 C3          2.9825   -3.1461    1.0644 C.ar      1 <0>        -0.0143
      4 C4          4.7260   -1.6944    2.6985 C.ar      1 <0>        -0.1552
      5 C5          3.8683   -2.6504    3.2771 C.ar      1 <0>         0.3076
      6 C6          3.0129   -3.3814    2.4399 C.ar      1 <0>        -0.4908
      7 C7         -1.4628    0.1636    1.3526 C.2       1 <0>         0.5994
      8 C8          0.8654   -1.4427    3.2413 C.2       1 <0>         0.6462
      9 C9         -3.5174   -3.1325    0.3793 C.cat     1 <0>         0.6305
     10 C10         5.6674   -0.8921    3.5643 C.3       1 <0>        -0.0319
     11 C11         2.1918    0.8805    0.7195 C.3       1 <0>        -0.0918
     12 C12         0.2821   -0.3679   -0.3105 C.3       1 <0>        -0.0841
     13 C13         1.6113    0.6116    2.1020 C.3       1 <0>         0.0870
     14 C14         4.6288   -2.0446    5.5409 C.3       1 <0>         0.2023
     15 C15        -0.2506   -0.7126    1.0828 C.3       1 <0>         0.0778
     16 C16         5.9450   -1.5685    4.9167 C.3       1 <0>        -0.0746
     17 C17         1.0859    0.9390   -0.3376 C.3       1 <0>        -0.0681
     18 C18         6.9614   -2.7088    4.7877 C.3       1 <0>        -0.0944
     19 C19         1.6740    1.1859   -1.7255 C.3       1 <0>        -0.0918
     20 C20        -2.2331   -3.6727    3.9110 C.3       1 <0>        -0.1192
     21 C21        -1.3133   -2.4479    3.9716 C.3       1 <0>        -0.0916
     22 C22        -2.5436   -4.0884    2.4784 C.3       1 <0>         0.1883
     23 C23        -0.0078   -2.6730    3.2260 C.3       1 <0>         0.1952
     24 N1          3.8960   -2.9148    4.6407 N.pl3     1 <0>        -0.7670
     25 N2          0.7744   -0.5925    2.1333 N.am      1 <0>        -0.4509
     26 N3         -4.1320   -2.0919   -0.3093 N.pl3     1 <0>        -0.8477
     27 N4         -3.2282   -4.3140   -0.2948 N.pl3     1 <0>        -0.8633
     28 N5         -3.1850   -3.0147    1.7332 N.pl3     1 <0>        -0.7419
     29 N6          0.7961   -3.6905    3.9267 N.pl3     1 <0>        -0.8860
     30 O1         -2.1834    0.6487    0.4931 O.2       1 <0>        -0.5199
     31 O2          1.6103   -1.2468    4.2054 O.2       1 <0>        -0.6131
     32 O3          1.2775   -5.2555    1.9386 O.2       1 <0>        -0.6576
     33 O4          2.7012   -5.4164    4.0053 O.2       1 <0>        -0.6482
     34 O5         -1.6392    0.3395    2.6850 O.3       1 <0>        -0.6303
     35 S1          1.9328   -4.6215    3.0666 S.o2      1 <0>         1.5193
     36 H1          3.7867   -1.9943   -0.5661 H         1 <0>         0.1426
     37 H2          5.3282   -0.7035    0.8708 H         1 <0>         0.1398
     38 H3          2.3066   -3.7218    0.4399 H         1 <0>         0.1599
     39 H4          6.6144   -0.7219    3.0378 H         1 <0>         0.0574
     40 H5          5.2057    0.0881    3.7395 H         1 <0>         0.0629
     41 H6          2.7495    1.8244    0.7335 H         1 <0>         0.0614
     42 H7          2.9066    0.0878    0.4640 H         1 <0>         0.0593
     43 H8          0.9336   -1.1873   -0.6438 H         1 <0>         0.0841
     44 H9         -0.5414   -0.3095   -1.0336 H         1 <0>         0.0679
     45 H10         2.4269    0.5309    2.8282 H         1 <0>         0.0826
     46 H11         0.9807    1.4504    2.4206 H         1 <0>         0.0383
     47 H12         4.8217   -2.5758    6.4796 H         1 <0>         0.0556
     48 H13         4.0016   -1.1785    5.7856 H         1 <0>         0.0415
     49 H14        -0.6325   -1.7382    1.0612 H         1 <0>         0.0851
     50 H15         6.3979   -0.8252    5.5842 H         1 <0>         0.0639
     51 H16         0.4173    1.7778   -0.1080 H         1 <0>         0.0584
     52 H17         7.1898   -2.9029    3.7355 H         1 <0>         0.0401
     53 H18         7.8931   -2.4532    5.3012 H         1 <0>         0.0440
     54 H19         6.5655   -3.6282    5.2294 H         1 <0>         0.0459
     55 H20         1.1081    0.6390   -2.4855 H         1 <0>         0.0456
     56 H21         1.6425    2.2512   -1.9725 H         1 <0>         0.0366
     57 H22         2.7156    0.8534   -1.7662 H         1 <0>         0.0474
     58 H23        -1.7621   -4.5101    4.4397 H         1 <0>         0.0800
     59 H24        -3.1768   -3.4520    4.4231 H         1 <0>         0.0681
     60 H25        -1.1204   -2.1894    5.0211 H         1 <0>         0.0740
     61 H26        -1.8263   -1.5854    3.5275 H         1 <0>         0.0631
     62 H27        -3.2009   -4.9634    2.4540 H         1 <0>         0.0970
     63 H28        -1.6174   -4.3461    1.9550 H         1 <0>         0.0725
     64 H29        -0.1638   -2.9774    2.1921 H         1 <0>         0.0839
     65 H30         3.2089   -3.5553    5.0190 H         1 <0>         0.4531
     66 H31        -4.3639   -1.2113    0.1425 H         1 <0>         0.4798
     67 H32        -4.3709   -2.1861   -1.2938 H         1 <0>         0.4881
     68 H33        -2.7795   -5.0946    0.1783 H         1 <0>         0.4801
     69 H34        -3.4571   -4.4281   -1.2793 H         1 <0>         0.4806
     70 H35        -3.4097   -2.1352    2.2008 H         1 <0>         0.4689
     71 H36         0.9382   -3.5340    4.9302 H         1 <0>         0.4505
     72 H37        -2.4169    0.9048    2.8801 H         1 <0>         0.4443
@<TRIPOS>BOND
     1    1    2 ar
     2    1    3 ar
     3    2    4 ar
     4    3    6 ar
     5    4    5 ar
     6    4   10 1
     7    5    6 ar
     8    5   24 1
     9    6   35 1
    10    7   15 1
    11    7   30 2
    12    7   34 1
    13    8   23 1
    14    8   25 am
    15    8   31 2
    16    9   26 1
    17    9   27 1
    18    9   28 1
    19   10   16 1
    20   11   13 1
    21   11   17 1
    22   12   15 1
    23   12   17 1
    24   13   25 1
    25   14   16 1
    26   14   24 1
    27   15   25 1
    28   16   18 1
    29   17   19 1
    30   20   21 1
    31   20   22 1
    32   21   23 1
    33   22   28 1
    34   23   29 1
    35   29   35 1
    36   32   35 2
    37   33   35 2
    38    1   36 1
    39    2   37 1
    40    3   38 1
    41   10   39 1
    42   10   40 1
    43   11   41 1
    44   11   42 1
    45   12   43 1
    46   12   44 1
    47   13   45 1
    48   13   46 1
    49   14   47 1
    50   14   48 1
    51   15   49 1
    52   16   50 1
    53   17   51 1
    54   18   52 1
    55   18   53 1
    56   18   54 1
    57   19   55 1
    58   19   56 1
    59   19   57 1
    60   20   58 1
    61   20   59 1
    62   21   60 1
    63   21   61 1
    64   22   62 1
    65   22   63 1
    66   23   64 1
    67   24   65 1
    68   26   66 1
    69   26   67 1
    70   27   68 1
    71   27   69 1
    72   28   70 1
    73   29   71 1
    74   34   72 1
@<TRIPOS>MOLECULE
1dwc_ligand_321
   72    74     0     0     0
SMALL
USER_CHARGES

mmff94s_NoEstat = 81.77
@<TRIPOS>ATOM
      1 C1          0.6093   -6.2514   -1.1331 C.ar      1 <0>        -0.1945
      2 C2          1.7391   -6.9534   -0.7183 C.ar      1 <0>        -0.0294
      3 C3          0.7343   -5.2205   -2.0596 C.ar      1 <0>        -0.0143
      4 C4          3.0029   -6.6298   -1.2325 C.ar      1 <0>        -0.1552
      5 C5          3.1419   -5.5684   -2.1489 C.ar      1 <0>         0.3076
      6 C6          1.9909   -4.8841   -2.5656 C.ar      1 <0>        -0.4908
      7 C7          2.4038   -0.4910    2.4030 C.2       1 <0>         0.5994
      8 C8          2.9466   -1.3973   -0.6457 C.2       1 <0>         0.6462
      9 C9          6.2822    2.1931   -1.8793 C.cat     1 <0>         0.6305
     10 C10         4.2174   -7.3963   -0.7662 C.3       1 <0>        -0.0319
     11 C11         3.9178   -3.4419    2.3602 C.3       1 <0>        -0.0918
     12 C12         4.8012   -1.0545    2.5913 C.3       1 <0>        -0.0841
     13 C13         4.0430   -3.0960    0.8803 C.3       1 <0>         0.0870
     14 C14         5.5937   -5.7970   -2.1205 C.3       1 <0>         0.2023
     15 C15         3.6790   -0.7248    1.6100 C.3       1 <0>         0.0778
     16 C16         5.3776   -7.2719   -1.7663 C.3       1 <0>        -0.0746
     17 C17         4.6242   -2.4243    3.2705 C.3       1 <0>        -0.0681
     18 C18         6.6521   -7.8917   -1.1998 C.3       1 <0>        -0.0944
     19 C19         5.9763   -2.9527    3.7531 C.3       1 <0>        -0.0918
     20 C20         5.7415   -1.0578   -1.6401 C.3       1 <0>        -0.1192
     21 C21         4.5564   -1.3488   -2.5679 C.3       1 <0>        -0.0916
     22 C22         6.8115   -0.2136   -2.3213 C.3       1 <0>         0.1883
     23 C23         3.4544   -2.1251   -1.8653 C.3       1 <0>         0.1952
     24 N1          4.3811   -5.2258   -2.6756 N.pl3     1 <0>        -0.7670
     25 N2          3.5192   -1.7560    0.5781 N.am      1 <0>        -0.4509
     26 N3          5.7834    3.4227   -2.2967 N.pl3     1 <0>        -0.8477
     27 N4          6.7794    2.0667   -0.5867 N.pl3     1 <0>        -0.8633
     28 N5          6.2936    1.0837   -2.7315 N.pl3     1 <0>        -0.7419
     29 N6          2.2741   -2.2179   -2.7432 N.pl3     1 <0>        -0.8860
     30 O1          2.2729    0.3351    3.2940 O.2       1 <0>        -0.5199
     31 O2          2.0685   -0.5400   -0.7710 O.2       1 <0>        -0.6131
     32 O3          3.2466   -3.7694   -4.5546 O.2       1 <0>        -0.6576
     33 O4          0.7526   -3.5048   -4.3692 O.2       1 <0>        -0.6482
     34 O5          1.4223   -1.3294    1.9894 O.3       1 <0>        -0.6303
     35 S1          2.0591   -3.5786   -3.7438 S.o2      1 <0>         1.5193
     36 H1         -0.3683   -6.5110   -0.7364 H         1 <0>         0.1426
     37 H2          1.6316   -7.7594    0.0037 H         1 <0>         0.1398
     38 H3         -0.1396   -4.6708   -2.3946 H         1 <0>         0.1599
     39 H4          4.5163   -7.0048    0.2145 H         1 <0>         0.0574
     40 H5          3.9649   -8.4563   -0.6405 H         1 <0>         0.0629
     41 H6          2.8510   -3.4591    2.6203 H         1 <0>         0.0614
     42 H7          4.2939   -4.4553    2.5428 H         1 <0>         0.0593
     43 H8          5.7524   -1.0436    2.0413 H         1 <0>         0.0841
     44 H9          4.8832   -0.2779    3.3625 H         1 <0>         0.0679
     45 H10         5.0934   -3.1114    0.5668 H         1 <0>         0.0826
     46 H11         3.5122   -3.8428    0.2819 H         1 <0>         0.0383
     47 H12         5.8905   -5.2266   -1.2316 H         1 <0>         0.0556
     48 H13         6.4019   -5.6981   -2.8538 H         1 <0>         0.0415
     49 H14         3.9015    0.2290    1.1168 H         1 <0>         0.0851
     50 H15         5.1141   -7.8187   -2.6818 H         1 <0>         0.0639
     51 H16         4.0032   -2.2947    4.1661 H         1 <0>         0.0584
     52 H17         7.3989   -8.0232   -1.9884 H         1 <0>         0.0401
     53 H18         7.0798   -7.2498   -0.4238 H         1 <0>         0.0440
     54 H19         6.4404   -8.8706   -0.7592 H         1 <0>         0.0459
     55 H20         5.8782   -3.4157    4.7396 H         1 <0>         0.0456
     56 H21         6.3665   -3.7022    3.0580 H         1 <0>         0.0366
     57 H22         6.7034   -2.1384    3.8257 H         1 <0>         0.0474
     58 H23         5.3842   -0.5386   -0.7426 H         1 <0>         0.0800
     59 H24         6.1956   -2.0004   -1.3135 H         1 <0>         0.0681
     60 H25         4.9119   -1.8947   -3.4517 H         1 <0>         0.0740
     61 H26         4.1396   -0.4017   -2.9334 H         1 <0>         0.0631
     62 H27         7.2104   -0.7195   -3.2063 H         1 <0>         0.0970
     63 H28         7.6418   -0.0344   -1.6309 H         1 <0>         0.0725
     64 H29         3.7703   -3.1244   -1.5692 H         1 <0>         0.0839
     65 H30         4.4419   -4.4093   -3.2714 H         1 <0>         0.4531
     66 H31         5.4119    3.5624   -3.2326 H         1 <0>         0.4798
     67 H32         5.7794    4.2246   -1.6707 H         1 <0>         0.4881
     68 H33         7.1515    1.1824   -0.2491 H         1 <0>         0.4801
     69 H34         6.7829    2.8555    0.0556 H         1 <0>         0.4806
     70 H35         5.9218    1.2075   -3.6745 H         1 <0>         0.4689
     71 H36         1.4502   -1.6870   -2.4414 H         1 <0>         0.4505
     72 H37         0.5902   -1.1952    2.4913 H         1 <0>         0.4443
@<TRIPOS>BOND
     1    1    2 ar
     2    1    3 ar
     3    2    4 ar
     4    3    6 ar
     5    4    5 ar
     6    4   10 1
     7    5    6 ar
     8    5   24 1
     9    6   35 1
    10    7   15 1
    11    7   30 2
    12    7   34 1
    13    8   23 1
    14    8   25 am
    15    8   31 2
    16    9   26 1
    17    9   27 1
    18    9   28 1
    19   10   16 1
    20   11   13 1
    21   11   17 1
    22   12   15 1
    23   12   17 1
    24   13   25 1
    25   14   16 1
    26   14   24 1
    27   15   25 1
    28   16   18 1
    29   17   19 1
    30   20   21 1
    31   20   22 1
    32   21   23 1
    33   22   28 1
    34   23   29 1
    35   29   35 1
    36   32   35 2
    37   33   35 2
    38    1   36 1
    39    2   37 1
    40    3   38 1
    41   10   39 1
    42   10   40 1
    43   11   41 1
    44   11   42 1
    45   12   43 1
    46   12   44 1
    47   13   45 1
    48   13   46 1
    49   14   47 1
    50   14   48 1
    51   15   49 1
    52   16   50 1
    53   17   51 1
    54   18   52 1
    55   18   53 1
    56   18   54 1
    57   19   55 1
    58   19   56 1
    59   19   57 1
    60   20   58 1
    61   20   59 1
    62   21   60 1
    63   21   61 1
    64   22   62 1
    65   22   63 1
    66   23   64 1
    67   24   65 1
    68   26   66 1
    69   26   67 1
    70   27   68 1
    71   27   69 1
    72   28   70 1
    73   29   71 1
    74   34   72 1
@<TRIPOS>MOLECULE
1dwc_ligand_322
   72    74     0     0     0
SMALL
USER_CHARGES

mmff94s_NoEstat = 81.80
@<TRIPOS>ATOM
      1 C1          1.6845   -5.9778    0.1844 C.ar      1 <0>        -0.1945
      2 C2          0.6520   -5.4496    0.9566 C.ar      1 <0>        -0.0294
      3 C3          1.9606   -5.4374   -1.0681 C.ar      1 <0>        -0.0143
      4 C4         -0.1093   -4.3725    0.4806 C.ar      1 <0>        -0.1552
      5 C5          0.1450   -3.8386   -0.7984 C.ar      1 <0>         0.3076
      6 C6          1.1982   -4.3739   -1.5539 C.ar      1 <0>        -0.4908
      7 C7          1.8102   -1.5505    2.3702 C.2       1 <0>         0.5994
      8 C8          2.9466   -1.3973   -0.6457 C.2       1 <0>         0.6462
      9 C9          6.8021   -5.4466   -4.4355 C.cat     1 <0>         0.6305
     10 C10        -1.2292   -3.8175    1.3278 C.3       1 <0>        -0.0319
     11 C11         4.4920   -3.4807    2.0801 C.3       1 <0>        -0.0918
     12 C12         4.1798   -1.0721    2.8769 C.3       1 <0>        -0.0841
     13 C13         4.5658   -2.7774    0.7291 C.3       1 <0>         0.0870
     14 C14        -1.7931   -2.3309   -0.6108 C.3       1 <0>         0.2023
     15 C15         3.1125   -1.0286    1.7861 C.3       1 <0>         0.0778
     16 C16        -1.5940   -2.3850    0.9075 C.3       1 <0>        -0.0746
     17 C17         4.5869   -2.5050    3.2643 C.3       1 <0>        -0.0681
     18 C18        -2.8431   -1.9049    1.6414 C.3       1 <0>        -0.0944
     19 C19         5.9882   -2.5079    3.8779 C.3       1 <0>        -0.0918
     20 C20         5.1203   -2.1076   -3.7746 C.3       1 <0>        -0.1192
     21 C21         4.5564   -1.3488   -2.5679 C.3       1 <0>        -0.0916
     22 C22         5.6479   -3.4850   -3.3924 C.3       1 <0>         0.1883
     23 C23         3.4544   -2.1251   -1.8653 C.3       1 <0>         0.1952
     24 N1         -0.5924   -2.7711   -1.2958 N.pl3     1 <0>        -0.7670
     25 N2          3.5192   -1.7560    0.5781 N.am      1 <0>        -0.4509
     26 N3          7.3239   -6.0965   -5.5492 N.pl3     1 <0>        -0.8477
     27 N4          6.8782   -6.0650   -3.1922 N.pl3     1 <0>        -0.8633
     28 N5          6.2038   -4.1863   -4.5407 N.pl3     1 <0>        -0.7419
     29 N6          2.2741   -2.2179   -2.7432 N.pl3     1 <0>        -0.8860
     30 O1          1.1684   -2.4905    1.9254 O.2       1 <0>        -0.5199
     31 O2          2.0685   -0.5400   -0.7710 O.2       1 <0>        -0.6131
     32 O3          2.6686   -4.5798   -3.6918 O.2       1 <0>        -0.6576
     33 O4          0.3811   -3.5494   -3.8650 O.2       1 <0>        -0.6482
     34 O5          1.4498   -0.8272    3.4584 O.3       1 <0>        -0.6303
     35 S1          1.6226   -3.7401   -3.1398 S.o2      1 <0>         1.5193
     36 H1          2.2754   -6.8081    0.5612 H         1 <0>         0.1426
     37 H2          0.4453   -5.8762    1.9353 H         1 <0>         0.1398
     38 H3          2.7663   -5.8367   -1.6758 H         1 <0>         0.1599
     39 H4         -2.0994   -4.4781    1.2245 H         1 <0>         0.0574
     40 H5         -0.9335   -3.8165    2.3842 H         1 <0>         0.0629
     41 H6          3.5311   -4.0088    2.1410 H         1 <0>         0.0614
     42 H7          5.2694   -4.2509    2.1463 H         1 <0>         0.0593
     43 H8          5.0641   -0.5305    2.5137 H         1 <0>         0.0841
     44 H9          3.8399   -0.5392    3.7741 H         1 <0>         0.0679
     45 H10         5.5312   -2.2723    0.6079 H         1 <0>         0.0826
     46 H11         4.4795   -3.5150   -0.0747 H         1 <0>         0.0383
     47 H12        -2.6365   -2.9647   -0.9116 H         1 <0>         0.0556
     48 H13        -2.0279   -1.3080   -0.9257 H         1 <0>         0.0415
     49 H14         2.9188    0.0160    1.5141 H         1 <0>         0.0851
     50 H15        -0.7654   -1.7164    1.1777 H         1 <0>         0.0639
     51 H16         3.9047   -2.8651    4.0450 H         1 <0>         0.0584
     52 H17        -2.9604   -0.8225    1.5328 H         1 <0>         0.0401
     53 H18        -3.7366   -2.3905    1.2379 H         1 <0>         0.0440
     54 H19        -2.7758   -2.1387    2.7081 H         1 <0>         0.0459
     55 H20         6.0310   -3.1862    4.7353 H         1 <0>         0.0456
     56 H21         6.7293   -2.8350    3.1425 H         1 <0>         0.0366
     57 H22         6.2606   -1.5045    4.2187 H         1 <0>         0.0474
     58 H23         4.3389   -2.2150   -4.5365 H         1 <0>         0.0800
     59 H24         5.9381   -1.5325   -4.2238 H         1 <0>         0.0681
     60 H25         4.1906   -0.3664   -2.8945 H         1 <0>         0.0740
     61 H26         5.3633   -1.1575   -1.8491 H         1 <0>         0.0631
     62 H27         4.8565   -4.1061   -2.9610 H         1 <0>         0.0970
     63 H28         6.4445   -3.3867   -2.6481 H         1 <0>         0.0725
     64 H29         3.7703   -3.1244   -1.5692 H         1 <0>         0.0839
     65 H30        -0.4235   -2.4715   -2.2481 H         1 <0>         0.4531
     66 H31         7.2891   -5.6840   -6.4776 H         1 <0>         0.4798
     67 H32         7.7569   -7.0132   -5.4639 H         1 <0>         0.4881
     68 H33         6.5067   -5.6181   -2.3575 H         1 <0>         0.4801
     69 H34         7.3085   -6.9804   -3.0849 H         1 <0>         0.4806
     70 H35         6.1629   -3.7578   -5.4666 H         1 <0>         0.4689
     71 H36         1.6613   -1.3957   -2.7560 H         1 <0>         0.4505
     72 H37         0.6092   -1.1478    3.8495 H         1 <0>         0.4443
@<TRIPOS>BOND
     1    1    2 ar
     2    1    3 ar
     3    2    4 ar
     4    3    6 ar
     5    4    5 ar
     6    4   10 1
     7    5    6 ar
     8    5   24 1
     9    6   35 1
    10    7   15 1
    11    7   30 2
    12    7   34 1
    13    8   23 1
    14    8   25 am
    15    8   31 2
    16    9   26 1
    17    9   27 1
    18    9   28 1
    19   10   16 1
    20   11   13 1
    21   11   17 1
    22   12   15 1
    23   12   17 1
    24   13   25 1
    25   14   16 1
    26   14   24 1
    27   15   25 1
    28   16   18 1
    29   17   19 1
    30   20   21 1
    31   20   22 1
    32   21   23 1
    33   22   28 1
    34   23   29 1
    35   29   35 1
    36   32   35 2
    37   33   35 2
    38    1   36 1
    39    2   37 1
    40    3   38 1
    41   10   39 1
    42   10   40 1
    43   11   41 1
    44   11   42 1
    45   12   43 1
    46   12   44 1
    47   13   45 1
    48   13   46 1
    49   14   47 1
    50   14   48 1
    51   15   49 1
    52   16   50 1
    53   17   51 1
    54   18   52 1
    55   18   53 1
    56   18   54 1
    57   19   55 1
    58   19   56 1
    59   19   57 1
    60   20   58 1
    61   20   59 1
    62   21   60 1
    63   21   61 1
    64   22   62 1
    65   22   63 1
    66   23   64 1
    67   24   65 1
    68   26   66 1
    69   26   67 1
    70   27   68 1
    71   27   69 1
    72   28   70 1
    73   29   71 1
    74   34   72 1
@<TRIPOS>MOLECULE
1dwc_ligand_323
   72    74     0     0     0
SMALL
USER_CHARGES

mmff94s_NoEstat = 81.82
@<TRIPOS>ATOM
      1 C1          2.9804   -6.8364   -3.8826 C.ar      1 <0>        -0.1945
      2 C2          2.9418   -6.7056   -5.2692 C.ar      1 <0>        -0.0294
      3 C3          2.4346   -5.8419   -3.0764 C.ar      1 <0>        -0.0143
      4 C4          2.3519   -5.5783   -5.8586 C.ar      1 <0>        -0.1552
      5 C5          1.8230   -4.5534   -5.0490 C.ar      1 <0>         0.3076
      6 C6          1.8576   -4.7107   -3.6559 C.ar      1 <0>        -0.4908
      7 C7          1.7641   -2.7212    2.0487 C.2       1 <0>         0.5994
      8 C8          2.9466   -1.3973   -0.6457 C.2       1 <0>         0.6462
      9 C9          7.5359   -4.0368   -4.9413 C.cat     1 <0>         0.6305
     10 C10         2.3255   -5.4497   -7.3628 C.3       1 <0>        -0.0319
     11 C11         5.0423   -3.2056    1.9033 C.3       1 <0>        -0.0918
     12 C12         3.6127   -1.4179    3.0409 C.3       1 <0>        -0.0841
     13 C13         4.8985   -2.2417    0.7304 C.3       1 <0>         0.0870
     14 C14         1.3521   -3.1637   -7.0268 C.3       1 <0>         0.2023
     15 C15         2.7323   -1.5757    1.8036 C.3       1 <0>         0.0778
     16 C16         1.2367   -4.4677   -7.8231 C.3       1 <0>        -0.0746
     17 C17         4.5907   -2.5900    3.2377 C.3       1 <0>        -0.0681
     18 C18         1.3410   -4.2047   -9.3229 C.3       1 <0>        -0.0944
     19 C19         5.7878   -2.1430    4.0786 C.3       1 <0>        -0.0918
     20 C20         5.1203   -2.1076   -3.7746 C.3       1 <0>        -0.1192
     21 C21         4.5564   -1.3488   -2.5679 C.3       1 <0>        -0.0916
     22 C22         5.6479   -3.4850   -3.3924 C.3       1 <0>         0.1883
     23 C23         3.4544   -2.1251   -1.8653 C.3       1 <0>         0.1952
     24 N1          1.2318   -3.4255   -5.6050 N.pl3     1 <0>        -0.7670
     25 N2          3.5192   -1.7560    0.5781 N.am      1 <0>        -0.4509
     26 N3          8.0431   -4.7203   -6.0415 N.pl3     1 <0>        -0.8477
     27 N4          8.3730   -3.1871   -4.2262 N.pl3     1 <0>        -0.8633
     28 N5          6.2038   -4.1863   -4.5407 N.pl3     1 <0>        -0.7419
     29 N6          2.2741   -2.2179   -2.7432 N.pl3     1 <0>        -0.8860
     30 O1          0.9797   -2.7895    2.9833 O.2       1 <0>        -0.5199
     31 O2          2.0685   -0.5400   -0.7710 O.2       1 <0>        -0.6131
     32 O3         -0.1165   -3.1121   -3.0880 O.2       1 <0>        -0.6576
     33 O4          1.2896   -4.0436   -1.2226 O.2       1 <0>        -0.6482
     34 O5          1.8885   -3.6674    1.0861 O.3       1 <0>        -0.6303
     35 S1          1.1775   -3.5081   -2.5659 S.o2      1 <0>         1.5193
     36 H1          3.4328   -7.7153   -3.4316 H         1 <0>         0.1426
     37 H2          3.3680   -7.4891   -5.8914 H         1 <0>         0.1398
     38 H3          2.4534   -5.9358   -1.9953 H         1 <0>         0.1599
     39 H4          3.3132   -5.1073   -7.6968 H         1 <0>         0.0574
     40 H5          2.1395   -6.4300   -7.8186 H         1 <0>         0.0629
     41 H6          4.4221   -4.0890    1.7005 H         1 <0>         0.0614
     42 H7          6.0756   -3.5656    1.9699 H         1 <0>         0.0593
     43 H8          4.1829   -0.4841    2.9397 H         1 <0>         0.0841
     44 H9          2.9979   -1.3064    3.9432 H         1 <0>         0.0679
     45 H10         5.5377   -1.3623    0.8715 H         1 <0>         0.0826
     46 H11         5.2196   -2.7347   -0.1923 H         1 <0>         0.0383
     47 H12         2.3133   -2.6740   -7.2264 H         1 <0>         0.0556
     48 H13         0.5637   -2.4650   -7.3281 H         1 <0>         0.0415
     49 H14         2.1101   -0.6800    1.6885 H         1 <0>         0.0851
     50 H15         0.2527   -4.9144   -7.6261 H         1 <0>         0.0639
     51 H16         4.0846   -3.3774    3.8106 H         1 <0>         0.0584
     52 H17         0.4364   -3.7110   -9.6904 H         1 <0>         0.0401
     53 H18         2.1981   -3.5608   -9.5417 H         1 <0>         0.0440
     54 H19         1.4672   -5.1439   -9.8699 H         1 <0>         0.0459
     55 H20         6.0635   -2.9197    4.7982 H         1 <0>         0.0456
     56 H21         6.6531   -1.9424    3.4397 H         1 <0>         0.0366
     57 H22         5.5491   -1.2299    4.6321 H         1 <0>         0.0474
     58 H23         4.3389   -2.2150   -4.5365 H         1 <0>         0.0800
     59 H24         5.9381   -1.5325   -4.2238 H         1 <0>         0.0681
     60 H25         4.1906   -0.3664   -2.8945 H         1 <0>         0.0740
     61 H26         5.3633   -1.1575   -1.8491 H         1 <0>         0.0631
     62 H27         4.8565   -4.1061   -2.9610 H         1 <0>         0.0970
     63 H28         6.4445   -3.3867   -2.6481 H         1 <0>         0.0725
     64 H29         3.7703   -3.1244   -1.5692 H         1 <0>         0.0839
     65 H30         0.9344   -2.6826   -4.9846 H         1 <0>         0.4531
     66 H31         7.4692   -5.3530   -6.5926 H         1 <0>         0.4798
     67 H32         9.0133   -4.6063   -6.3256 H         1 <0>         0.4881
     68 H33         8.0348   -2.6722   -3.4168 H         1 <0>         0.4801
     69 H34         9.3455   -3.0575   -4.4946 H         1 <0>         0.4806
     70 H35         5.6138   -4.8170   -5.0856 H         1 <0>         0.4689
     71 H36         1.9407   -1.3323   -3.1385 H         1 <0>         0.4505
     72 H37         1.2722   -4.4174    1.2277 H         1 <0>         0.4443
@<TRIPOS>BOND
     1    1    2 ar
     2    1    3 ar
     3    2    4 ar
     4    3    6 ar
     5    4    5 ar
     6    4   10 1
     7    5    6 ar
     8    5   24 1
     9    6   35 1
    10    7   15 1
    11    7   30 2
    12    7   34 1
    13    8   23 1
    14    8   25 am
    15    8   31 2
    16    9   26 1
    17    9   27 1
    18    9   28 1
    19   10   16 1
    20   11   13 1
    21   11   17 1
    22   12   15 1
    23   12   17 1
    24   13   25 1
    25   14   16 1
    26   14   24 1
    27   15   25 1
    28   16   18 1
    29   17   19 1
    30   20   21 1
    31   20   22 1
    32   21   23 1
    33   22   28 1
    34   23   29 1
    35   29   35 1
    36   32   35 2
    37   33   35 2
    38    1   36 1
    39    2   37 1
    40    3   38 1
    41   10   39 1
    42   10   40 1
    43   11   41 1
    44   11   42 1
    45   12   43 1
    46   12   44 1
    47   13   45 1
    48   13   46 1
    49   14   47 1
    50   14   48 1
    51   15   49 1
    52   16   50 1
    53   17   51 1
    54   18   52 1
    55   18   53 1
    56   18   54 1
    57   19   55 1
    58   19   56 1
    59   19   57 1
    60   20   58 1
    61   20   59 1
    62   21   60 1
    63   21   61 1
    64   22   62 1
    65   22   63 1
    66   23   64 1
    67   24   65 1
    68   26   66 1
    69   26   67 1
    70   27   68 1
    71   27   69 1
    72   28   70 1
    73   29   71 1
    74   34   72 1
@<TRIPOS>MOLECULE
1dwc_ligand_324
   72    74     0     0     0
SMALL
USER_CHARGES

mmff94s_NoEstat = 81.85
@<TRIPOS>ATOM
      1 C1          5.6186   -7.0763   -3.1243 C.ar      1 <0>        -0.1945
      2 C2          4.9197   -7.1215   -4.3287 C.ar      1 <0>        -0.0294
      3 C3          5.9262   -5.8481   -2.5468 C.ar      1 <0>        -0.0143
      4 C4          4.5270   -5.9355   -4.9658 C.ar      1 <0>        -0.1552
      5 C5          4.8094   -4.6892   -4.3733 C.ar      1 <0>         0.3076
      6 C6          5.5274   -4.6639   -3.1687 C.ar      1 <0>        -0.4908
      7 C7          3.6135    0.1593    2.1008 C.2       1 <0>         0.5994
      8 C8          2.9466   -1.3973   -0.6457 C.2       1 <0>         0.6462
      9 C9         -2.2980   -3.2816   -4.1919 C.cat     1 <0>         0.6305
     10 C10         3.7632   -6.0054   -6.2664 C.3       1 <0>        -0.0319
     11 C11         5.5437    1.3083   -0.3397 C.3       1 <0>        -0.0918
     12 C12         3.3133    2.1108    0.6168 C.3       1 <0>        -0.0841
     13 C13         4.6073    0.4410   -1.1741 C.3       1 <0>         0.0870
     14 C14         3.5385   -3.5069   -6.1218 C.3       1 <0>         0.2023
     15 C15         3.0358    0.6175    0.7719 C.3       1 <0>         0.0778
     16 C16         3.8230   -4.6878   -7.0562 C.3       1 <0>        -0.0746
     17 C17         4.8054    2.4280    0.4117 C.3       1 <0>        -0.0681
     18 C18         5.1564   -4.5237   -7.7945 C.3       1 <0>        -0.0944
     19 C19         4.9662    3.7744   -0.2964 C.3       1 <0>        -0.0918
     20 C20         1.1084   -2.3549   -2.7950 C.3       1 <0>        -0.1192
     21 C21         2.4114   -3.0756   -2.4306 C.3       1 <0>        -0.0916
     22 C22         0.0368   -3.3189   -3.2890 C.3       1 <0>         0.1883
     23 C23         3.4544   -2.1251   -1.8653 C.3       1 <0>         0.1952
     24 N1          4.4396   -3.4979   -4.9848 N.pl3     1 <0>        -0.7670
     25 N2          3.5421   -0.1648   -0.3619 N.am      1 <0>        -0.4509
     26 N3         -3.4568   -2.5916   -4.5325 N.pl3     1 <0>        -0.8477
     27 N4         -2.2453   -4.6572   -4.3892 N.pl3     1 <0>        -0.8633
     28 N5         -1.1871   -2.6212   -3.6562 N.pl3     1 <0>        -0.7419
     29 N6          4.6097   -2.8934   -1.3678 N.pl3     1 <0>        -0.8860
     30 O1          3.3259    0.6306    3.1909 O.2       1 <0>        -0.5199
     31 O2          2.0528   -1.9046    0.0367 O.2       1 <0>        -0.6131
     32 O3          7.1283   -3.4000   -1.5517 O.2       1 <0>        -0.6576
     33 O4          5.9896   -2.1297   -3.3994 O.2       1 <0>        -0.6482
     34 O5          4.5002   -0.8490    1.9151 O.3       1 <0>        -0.6303
     35 S1          5.9585   -3.1544   -2.3734 S.o2      1 <0>         1.5193
     36 H1          5.9258   -7.9984   -2.6383 H         1 <0>         0.1426
     37 H2          4.6861   -8.0856   -4.7742 H         1 <0>         0.1398
     38 H3          6.4755   -5.8004   -1.6117 H         1 <0>         0.1599
     39 H4          4.1471   -6.8236   -6.8878 H         1 <0>         0.0574
     40 H5          2.7171   -6.2350   -6.0267 H         1 <0>         0.0629
     41 H6          6.0425    0.6652    0.3976 H         1 <0>         0.0614
     42 H7          6.3377    1.7214   -0.9727 H         1 <0>         0.0593
     43 H8          2.7432    2.4779   -0.2478 H         1 <0>         0.0841
     44 H9          2.9432    2.6669    1.4876 H         1 <0>         0.0679
     45 H10         4.1201    1.0372   -1.9545 H         1 <0>         0.0826
     46 H11         5.1818   -0.3450   -1.6740 H         1 <0>         0.0383
     47 H12         3.6321   -2.5597   -6.6644 H         1 <0>         0.0556
     48 H13         2.5062   -3.5662   -5.7555 H         1 <0>         0.0415
     49 H14         1.9534    0.4590    0.8478 H         1 <0>         0.0851
     50 H15         3.0441   -4.7162   -7.8281 H         1 <0>         0.0639
     51 H16         5.2803    2.5350    1.3953 H         1 <0>         0.0584
     52 H17         5.8547   -5.3154   -7.5073 H         1 <0>         0.0401
     53 H18         5.0052   -4.5736   -8.8770 H         1 <0>         0.0440
     54 H19         5.6123   -3.5585   -7.5544 H         1 <0>         0.0459
     55 H20         5.9624    4.1882   -0.1137 H         1 <0>         0.0456
     56 H21         4.8337    3.6592   -1.3763 H         1 <0>         0.0366
     57 H22         4.2237    4.4910    0.0673 H         1 <0>         0.0474
     58 H23         0.7341   -1.8112   -1.9193 H         1 <0>         0.0800
     59 H24         1.3022   -1.6154   -3.5806 H         1 <0>         0.0681
     60 H25         2.8001   -3.5947   -3.3165 H         1 <0>         0.0740
     61 H26         2.2014   -3.8505   -1.6824 H         1 <0>         0.0631
     62 H27        -0.2083   -4.0632   -2.5248 H         1 <0>         0.0970
     63 H28         0.3931   -3.8504   -4.1772 H         1 <0>         0.0725
     64 H29         3.7902   -1.3903   -2.5956 H         1 <0>         0.0839
     65 H30         4.5980   -2.6323   -4.4837 H         1 <0>         0.4531
     66 H31        -3.5414   -1.5868   -4.4042 H         1 <0>         0.4798
     67 H32        -4.2604   -3.0798   -4.9210 H         1 <0>         0.4881
     68 H33        -1.4139   -5.1926   -4.1511 H         1 <0>         0.4801
     69 H34        -3.0369   -5.1641   -4.7779 H         1 <0>         0.4806
     70 H35        -1.2558   -1.6112   -3.5231 H         1 <0>         0.4689
     71 H36         4.7395   -2.8961   -0.3505 H         1 <0>         0.4505
     72 H37         4.8863   -1.1580    2.7624 H         1 <0>         0.4443
@<TRIPOS>BOND
     1    1    2 ar
     2    1    3 ar
     3    2    4 ar
     4    3    6 ar
     5    4    5 ar
     6    4   10 1
     7    5    6 ar
     8    5   24 1
     9    6   35 1
    10    7   15 1
    11    7   30 2
    12    7   34 1
    13    8   23 1
    14    8   25 am
    15    8   31 2
    16    9   26 1
    17    9   27 1
    18    9   28 1
    19   10   16 1
    20   11   13 1
    21   11   17 1
    22   12   15 1
    23   12   17 1
    24   13   25 1
    25   14   16 1
    26   14   24 1
    27   15   25 1
    28   16   18 1
    29   17   19 1
    30   20   21 1
    31   20   22 1
    32   21   23 1
    33   22   28 1
    34   23   29 1
    35   29   35 1
    36   32   35 2
    37   33   35 2
    38    1   36 1
    39    2   37 1
    40    3   38 1
    41   10   39 1
    42   10   40 1
    43   11   41 1
    44   11   42 1
    45   12   43 1
    46   12   44 1
    47   13   45 1
    48   13   46 1
    49   14   47 1
    50   14   48 1
    51   15   49 1
    52   16   50 1
    53   17   51 1
    54   18   52 1
    55   18   53 1
    56   18   54 1
    57   19   55 1
    58   19   56 1
    59   19   57 1
    60   20   58 1
    61   20   59 1
    62   21   60 1
    63   21   61 1
    64   22   62 1
    65   22   63 1
    66   23   64 1
    67   24   65 1
    68   26   66 1
    69   26   67 1
    70   27   68 1
    71   27   69 1
    72   28   70 1
    73   29   71 1
    74   34   72 1
@<TRIPOS>MOLECULE
1dwc_ligand_325
   72    74     0     0     0
SMALL
USER_CHARGES

mmff94s_NoEstat = 81.87
@<TRIPOS>ATOM
      1 C1         -2.2959   -2.3538    7.8119 C.ar      1 <0>        -0.1945
      2 C2         -2.6720   -1.0237    7.9869 C.ar      1 <0>        -0.0294
      3 C3         -2.3070   -2.9163    6.5390 C.ar      1 <0>        -0.0143
      4 C4         -3.0584   -0.2458    6.8861 C.ar      1 <0>        -0.1552
      5 C5         -3.1002   -0.8160    5.5982 C.ar      1 <0>         0.3076
      6 C6         -2.7033   -2.1518    5.4404 C.ar      1 <0>        -0.4908
      7 C7          2.0323   -3.0842    5.9821 C.2       1 <0>         0.5994
      8 C8          0.8654   -1.4427    3.2413 C.2       1 <0>         0.6462
      9 C9          4.0141   -6.1014   -0.2251 C.cat     1 <0>         0.6305
     10 C10        -3.4700    1.1919    7.0953 C.3       1 <0>        -0.0319
     11 C11         3.0911    0.4998    5.4298 C.3       1 <0>        -0.0918
     12 C12         1.5534   -0.8369    6.8842 C.3       1 <0>        -0.0841
     13 C13         2.8818   -0.5022    4.3015 C.3       1 <0>         0.0870
     14 C14        -4.0628    1.2474    4.6598 C.3       1 <0>         0.2023
     15 C15         1.2754   -1.7924    5.7207 C.3       1 <0>         0.0778
     16 C16        -3.3611    2.0019    5.7939 C.3       1 <0>        -0.0746
     17 C17         2.9339   -0.1724    6.7962 C.3       1 <0>        -0.0681
     18 C18        -3.9527    3.3976    5.9715 C.3       1 <0>        -0.0944
     19 C19         3.1216    0.8403    7.9242 C.3       1 <0>        -0.0918
     20 C20         1.7689   -4.0083    2.0091 C.3       1 <0>        -0.1192
     21 C21         0.3004   -3.5693    2.0376 C.3       1 <0>        -0.0916
     22 C22         2.0958   -4.8429    0.7769 C.3       1 <0>         0.1883
     23 C23        -0.0078   -2.6730    3.2260 C.3       1 <0>         0.1952
     24 N1         -3.4782   -0.0694    4.4890 N.pl3     1 <0>        -0.7670
     25 N2          1.5999   -1.2067    4.4091 N.am      1 <0>        -0.4509
     26 N3          5.3470   -6.4988   -0.2068 N.pl3     1 <0>        -0.8477
     27 N4          3.1913   -6.5359   -1.2586 N.pl3     1 <0>        -0.8633
     28 N5          3.4859   -5.2755    0.7729 N.pl3     1 <0>        -0.7419
     29 N6         -1.3760   -2.1385    3.1042 N.pl3     1 <0>        -0.8860
     30 O1          2.3575   -3.4961    7.0858 O.2       1 <0>        -0.5199
     31 O2          0.8891   -0.7105    2.2483 O.2       1 <0>        -0.6131
     32 O3         -2.3304   -4.3295    4.0644 O.2       1 <0>        -0.6576
     33 O4         -3.9087   -2.5768    3.1921 O.2       1 <0>        -0.6482
     34 O5          2.3038   -3.7238    4.8184 O.3       1 <0>        -0.6303
     35 S1         -2.6746   -2.9347    3.8647 S.o2      1 <0>         1.5193
     36 H1         -1.9909   -2.9498    8.6676 H         1 <0>         0.1426
     37 H2         -2.6574   -0.5917    8.9847 H         1 <0>         0.1398
     38 H3         -2.0103   -3.9495    6.3897 H         1 <0>         0.1599
     39 H4         -4.5027    1.2042    7.4664 H         1 <0>         0.0574
     40 H5         -2.8343    1.6552    7.8598 H         1 <0>         0.0629
     41 H6          4.0885    0.9467    5.3426 H         1 <0>         0.0614
     42 H7          2.3630    1.3153    5.3324 H         1 <0>         0.0593
     43 H8          0.7851   -0.0517    6.8776 H         1 <0>         0.0841
     44 H9          1.4567   -1.3607    7.8437 H         1 <0>         0.0679
     45 H10         2.9560    0.0148    3.3392 H         1 <0>         0.0826
     46 H11         3.6704   -1.2643    4.3172 H         1 <0>         0.0383
     47 H12        -5.1346    1.1449    4.8705 H         1 <0>         0.0556
     48 H13        -3.9688    1.8032    3.7203 H         1 <0>         0.0415
     49 H14         0.2160   -2.0663    5.7460 H         1 <0>         0.0851
     50 H15        -2.2992    2.1152    5.5368 H         1 <0>         0.0639
     51 H16         3.7104   -0.9392    6.9078 H         1 <0>         0.0584
     52 H17        -3.6607    4.0473    5.1410 H         1 <0>         0.0401
     53 H18        -5.0453    3.3508    6.0047 H         1 <0>         0.0440
     54 H19        -3.5987    3.8493    6.9030 H         1 <0>         0.0459
     55 H20         2.2527    0.8404    8.5891 H         1 <0>         0.0456
     56 H21         4.0086    0.5961    8.5164 H         1 <0>         0.0366
     57 H22         3.2450    1.8489    7.5186 H         1 <0>         0.0474
     58 H23         2.4156   -3.1229    2.0318 H         1 <0>         0.0800
     59 H24         1.9949   -4.6013    2.9028 H         1 <0>         0.0681
     60 H25        -0.3448   -4.4577    2.0448 H         1 <0>         0.0740
     61 H26         0.0666   -3.0218    1.1158 H         1 <0>         0.0631
     62 H27         1.9087   -4.2801   -0.1431 H         1 <0>         0.0970
     63 H28         1.4704   -5.7411    0.7573 H         1 <0>         0.0725
     64 H29         0.1003   -3.1895    4.1787 H         1 <0>         0.0839
     65 H30        -3.5654   -0.5418    3.5977 H         1 <0>         0.4531
     66 H31         5.9857   -6.2045    0.5272 H         1 <0>         0.4798
     67 H32         5.7233   -7.0992   -0.9370 H         1 <0>         0.4881
     68 H33         2.2121   -6.2643   -1.3027 H         1 <0>         0.4801
     69 H34         3.5471   -7.1379   -1.9973 H         1 <0>         0.4806
     70 H35         4.1145   -4.9729    1.5185 H         1 <0>         0.4689
     71 H36        -1.4476   -1.1318    2.9219 H         1 <0>         0.4505
     72 H37         2.7944   -4.5604    4.9659 H         1 <0>         0.4443
@<TRIPOS>BOND
     1    1    2 ar
     2    1    3 ar
     3    2    4 ar
     4    3    6 ar
     5    4    5 ar
     6    4   10 1
     7    5    6 ar
     8    5   24 1
     9    6   35 1
    10    7   15 1
    11    7   30 2
    12    7   34 1
    13    8   23 1
    14    8   25 am
    15    8   31 2
    16    9   26 1
    17    9   27 1
    18    9   28 1
    19   10   16 1
    20   11   13 1
    21   11   17 1
    22   12   15 1
    23   12   17 1
    24   13   25 1
    25   14   16 1
    26   14   24 1
    27   15   25 1
    28   16   18 1
    29   17   19 1
    30   20   21 1
    31   20   22 1
    32   21   23 1
    33   22   28 1
    34   23   29 1
    35   29   35 1
    36   32   35 2
    37   33   35 2
    38    1   36 1
    39    2   37 1
    40    3   38 1
    41   10   39 1
    42   10   40 1
    43   11   41 1
    44   11   42 1
    45   12   43 1
    46   12   44 1
    47   13   45 1
    48   13   46 1
    49   14   47 1
    50   14   48 1
    51   15   49 1
    52   16   50 1
    53   17   51 1
    54   18   52 1
    55   18   53 1
    56   18   54 1
    57   19   55 1
    58   19   56 1
    59   19   57 1
    60   20   58 1
    61   20   59 1
    62   21   60 1
    63   21   61 1
    64   22   62 1
    65   22   63 1
    66   23   64 1
    67   24   65 1
    68   26   66 1
    69   26   67 1
    70   27   68 1
    71   27   69 1
    72   28   70 1
    73   29   71 1
    74   34   72 1
@<TRIPOS>MOLECULE
1dwc_ligand_326
   72    74     0     0     0
SMALL
USER_CHARGES

mmff94s_NoEstat = 81.87
@<TRIPOS>ATOM
      1 C1          3.2154   -6.5240   -1.2843 C.ar      1 <0>        -0.1945
      2 C2          2.0271   -6.9417   -0.6886 C.ar      1 <0>        -0.0294
      3 C3          3.1981   -5.4928   -2.2187 C.ar      1 <0>        -0.0143
      4 C4          0.8124   -6.3257   -1.0224 C.ar      1 <0>        -0.1552
      5 C5          0.7824   -5.3007   -1.9888 C.ar      1 <0>         0.3076
      6 C6          1.9909   -4.8841   -2.5656 C.ar      1 <0>        -0.4908
      7 C7          1.9683   -0.7067    2.3504 C.2       1 <0>         0.5994
      8 C8          2.9466   -1.3973   -0.6457 C.2       1 <0>         0.6462
      9 C9          7.0979    2.0607   -3.3281 C.cat     1 <0>         0.6305
     10 C10        -0.4668   -6.7962   -0.3725 C.3       1 <0>        -0.0319
     11 C11         2.1854   -3.9944    1.9686 C.3       1 <0>        -0.0918
     12 C12         3.8131   -2.2556    2.8966 C.3       1 <0>        -0.0841
     13 C13         2.8391   -3.5657    0.6593 C.3       1 <0>         0.0870
     14 C14        -1.6766   -5.2108   -1.8920 C.3       1 <0>         0.2023
     15 C15         3.2228   -1.3678    1.8038 C.3       1 <0>         0.0778
     16 C16        -1.5644   -5.7236   -0.4525 C.3       1 <0>        -0.0746
     17 C17         2.9444   -3.4881    3.2059 C.3       1 <0>        -0.0681
     18 C18        -2.9001   -6.2753    0.0382 C.3       1 <0>        -0.0944
     19 C19         3.7998   -4.5942    3.8264 C.3       1 <0>        -0.0918
     20 C20         5.7415   -1.0578   -1.6401 C.3       1 <0>        -0.1192
     21 C21         4.5564   -1.3488   -2.5679 C.3       1 <0>        -0.0916
     22 C22         6.8115   -0.2136   -2.3213 C.3       1 <0>         0.1883
     23 C23         3.4544   -2.1251   -1.8653 C.3       1 <0>         0.1952
     24 N1         -0.4061   -4.6718   -2.3389 N.pl3     1 <0>        -0.7670
     25 N2          2.9741   -2.1051    0.5595 N.am      1 <0>        -0.4509
     26 N3          6.5776    3.2920   -3.7129 N.pl3     1 <0>        -0.8477
     27 N4          8.4467    1.7979   -3.5420 N.pl3     1 <0>        -0.8633
     28 N5          6.2936    1.0837   -2.7315 N.pl3     1 <0>        -0.7419
     29 N6          2.2741   -2.2179   -2.7432 N.pl3     1 <0>        -0.8860
     30 O1          1.9215   -0.0131    3.3555 O.2       1 <0>        -0.5199
     31 O2          2.5356   -0.2394   -0.7559 O.2       1 <0>        -0.6131
     32 O3          3.2466   -3.7694   -4.5546 O.2       1 <0>        -0.6576
     33 O4          0.7526   -3.5048   -4.3692 O.2       1 <0>        -0.6482
     34 O5          0.8975   -0.9928    1.5701 O.3       1 <0>        -0.6303
     35 S1          2.0591   -3.5786   -3.7438 S.o2      1 <0>         1.5193
     36 H1          4.1546   -7.0004   -1.0168 H         1 <0>         0.1426
     37 H2          2.0504   -7.7462    0.0426 H         1 <0>         0.1398
     38 H3          4.1183   -5.1550   -2.6846 H         1 <0>         0.1599
     39 H4         -0.7932   -7.7137   -0.8784 H         1 <0>         0.0574
     40 H5         -0.2825   -7.0422    0.6805 H         1 <0>         0.0629
     41 H6          1.1666   -3.5855    1.9944 H         1 <0>         0.0614
     42 H7          2.0785   -5.0851    1.9962 H         1 <0>         0.0593
     43 H8          4.8081   -2.5873    2.5693 H         1 <0>         0.0841
     44 H9          3.9682   -1.6833    3.8202 H         1 <0>         0.0679
     45 H10         3.8460   -3.9906    0.5720 H         1 <0>         0.0826
     46 H11         2.2519   -3.9401   -0.1848 H         1 <0>         0.0383
     47 H12        -1.9859   -6.0193   -2.5661 H         1 <0>         0.0556
     48 H13        -2.4387   -4.4261   -1.9562 H         1 <0>         0.0415
     49 H14         3.9207   -0.5495    1.5893 H         1 <0>         0.0851
     50 H15        -1.2856   -4.8844    0.1991 H         1 <0>         0.0639
     51 H16         2.1980   -3.2111    3.9613 H         1 <0>         0.0584
     52 H17        -3.6114   -5.4623    0.2119 H         1 <0>         0.0401
     53 H18        -3.3299   -6.9569   -0.7020 H         1 <0>         0.0440
     54 H19        -2.7683   -6.8236    0.9758 H         1 <0>         0.0459
     55 H20         3.2622   -5.0822    4.6449 H         1 <0>         0.0456
     56 H21         4.0499   -5.3522    3.0782 H         1 <0>         0.0366
     57 H22         4.7318   -4.1818    4.2242 H         1 <0>         0.0474
     58 H23         5.3842   -0.5386   -0.7426 H         1 <0>         0.0800
     59 H24         6.1956   -2.0004   -1.3135 H         1 <0>         0.0681
     60 H25         4.9119   -1.8947   -3.4517 H         1 <0>         0.0740
     61 H26         4.1396   -0.4017   -2.9334 H         1 <0>         0.0631
     62 H27         7.2104   -0.7195   -3.2063 H         1 <0>         0.0970
     63 H28         7.6418   -0.0344   -1.6309 H         1 <0>         0.0725
     64 H29         3.7703   -3.1244   -1.5692 H         1 <0>         0.0839
     65 H30        -0.3888   -3.9943   -3.0913 H         1 <0>         0.4531
     66 H31         5.5979    3.5274   -3.5781 H         1 <0>         0.4798
     67 H32         7.1694    3.9967   -4.1467 H         1 <0>         0.4881
     68 H33         8.8596    0.9082   -3.2729 H         1 <0>         0.4801
     69 H34         9.0560    2.4894   -3.9724 H         1 <0>         0.4806
     70 H35         5.3074    1.3059   -2.5875 H         1 <0>         0.4689
     71 H36         1.4502   -1.6870   -2.4414 H         1 <0>         0.4505
     72 H37         0.0762   -0.5760    1.9078 H         1 <0>         0.4443
@<TRIPOS>BOND
     1    1    2 ar
     2    1    3 ar
     3    2    4 ar
     4    3    6 ar
     5    4    5 ar
     6    4   10 1
     7    5    6 ar
     8    5   24 1
     9    6   35 1
    10    7   15 1
    11    7   30 2
    12    7   34 1
    13    8   23 1
    14    8   25 am
    15    8   31 2
    16    9   26 1
    17    9   27 1
    18    9   28 1
    19   10   16 1
    20   11   13 1
    21   11   17 1
    22   12   15 1
    23   12   17 1
    24   13   25 1
    25   14   16 1
    26   14   24 1
    27   15   25 1
    28   16   18 1
    29   17   19 1
    30   20   21 1
    31   20   22 1
    32   21   23 1
    33   22   28 1
    34   23   29 1
    35   29   35 1
    36   32   35 2
    37   33   35 2
    38    1   36 1
    39    2   37 1
    40    3   38 1
    41   10   39 1
    42   10   40 1
    43   11   41 1
    44   11   42 1
    45   12   43 1
    46   12   44 1
    47   13   45 1
    48   13   46 1
    49   14   47 1
    50   14   48 1
    51   15   49 1
    52   16   50 1
    53   17   51 1
    54   18   52 1
    55   18   53 1
    56   18   54 1
    57   19   55 1
    58   19   56 1
    59   19   57 1
    60   20   58 1
    61   20   59 1
    62   21   60 1
    63   21   61 1
    64   22   62 1
    65   22   63 1
    66   23   64 1
    67   24   65 1
    68   26   66 1
    69   26   67 1
    70   27   68 1
    71   27   69 1
    72   28   70 1
    73   29   71 1
    74   34   72 1
@<TRIPOS>MOLECULE
1dwc_ligand_327
   72    74     0     0     0
SMALL
USER_CHARGES

mmff94s_NoEstat = 81.94
@<TRIPOS>ATOM
      1 C1          0.6093   -6.2514   -1.1331 C.ar      1 <0>        -0.1945
      2 C2          1.7391   -6.9534   -0.7183 C.ar      1 <0>        -0.0294
      3 C3          0.7343   -5.2205   -2.0596 C.ar      1 <0>        -0.0143
      4 C4          3.0029   -6.6298   -1.2325 C.ar      1 <0>        -0.1552
      5 C5          3.1419   -5.5684   -2.1489 C.ar      1 <0>         0.3076
      6 C6          1.9909   -4.8841   -2.5656 C.ar      1 <0>        -0.4908
      7 C7          1.8102   -1.5505    2.3702 C.2       1 <0>         0.5994
      8 C8          2.9466   -1.3973   -0.6457 C.2       1 <0>         0.6462
      9 C9          7.0979    2.0607   -3.3281 C.cat     1 <0>         0.6305
     10 C10         4.2174   -7.3963   -0.7662 C.3       1 <0>        -0.0319
     11 C11         4.4920   -3.4807    2.0801 C.3       1 <0>        -0.0918
     12 C12         4.1798   -1.0721    2.8769 C.3       1 <0>        -0.0841
     13 C13         4.5658   -2.7774    0.7291 C.3       1 <0>         0.0870
     14 C14         5.5937   -5.7970   -2.1205 C.3       1 <0>         0.2023
     15 C15         3.1125   -1.0286    1.7861 C.3       1 <0>         0.0778
     16 C16         5.3776   -7.2719   -1.7663 C.3       1 <0>        -0.0746
     17 C17         4.5869   -2.5050    3.2643 C.3       1 <0>        -0.0681
     18 C18         6.6521   -7.8917   -1.1998 C.3       1 <0>        -0.0944
     19 C19         5.9882   -2.5079    3.8779 C.3       1 <0>        -0.0918
     20 C20         5.7415   -1.0578   -1.6401 C.3       1 <0>        -0.1192
     21 C21         4.5564   -1.3488   -2.5679 C.3       1 <0>        -0.0916
     22 C22         6.8115   -0.2136   -2.3213 C.3       1 <0>         0.1883
     23 C23         3.4544   -2.1251   -1.8653 C.3       1 <0>         0.1952
     24 N1          4.3811   -5.2258   -2.6756 N.pl3     1 <0>        -0.7670
     25 N2          3.5192   -1.7560    0.5781 N.am      1 <0>        -0.4509
     26 N3          6.5776    3.2920   -3.7129 N.pl3     1 <0>        -0.8477
     27 N4          8.4467    1.7979   -3.5420 N.pl3     1 <0>        -0.8633
     28 N5          6.2936    1.0837   -2.7315 N.pl3     1 <0>        -0.7419
     29 N6          2.2741   -2.2179   -2.7432 N.pl3     1 <0>        -0.8860
     30 O1          1.2492   -1.0925    3.3546 O.2       1 <0>        -0.5199
     31 O2          2.0685   -0.5400   -0.7710 O.2       1 <0>        -0.6131
     32 O3          3.2466   -3.7694   -4.5546 O.2       1 <0>        -0.6576
     33 O4          0.7526   -3.5048   -4.3692 O.2       1 <0>        -0.6482
     34 O5          1.3501   -2.6026    1.6500 O.3       1 <0>        -0.6303
     35 S1          2.0591   -3.5786   -3.7438 S.o2      1 <0>         1.5193
     36 H1         -0.3683   -6.5110   -0.7364 H         1 <0>         0.1426
     37 H2          1.6316   -7.7594    0.0037 H         1 <0>         0.1398
     38 H3         -0.1396   -4.6708   -2.3946 H         1 <0>         0.1599
     39 H4          4.5163   -7.0048    0.2145 H         1 <0>         0.0574
     40 H5          3.9649   -8.4563   -0.6405 H         1 <0>         0.0629
     41 H6          3.5311   -4.0088    2.1410 H         1 <0>         0.0614
     42 H7          5.2694   -4.2509    2.1463 H         1 <0>         0.0593
     43 H8          5.0641   -0.5305    2.5137 H         1 <0>         0.0841
     44 H9          3.8399   -0.5392    3.7741 H         1 <0>         0.0679
     45 H10         5.5312   -2.2723    0.6079 H         1 <0>         0.0826
     46 H11         4.4795   -3.5150   -0.0747 H         1 <0>         0.0383
     47 H12         5.8905   -5.2266   -1.2316 H         1 <0>         0.0556
     48 H13         6.4019   -5.6981   -2.8538 H         1 <0>         0.0415
     49 H14         2.9188    0.0160    1.5141 H         1 <0>         0.0851
     50 H15         5.1141   -7.8187   -2.6818 H         1 <0>         0.0639
     51 H16         3.9047   -2.8651    4.0450 H         1 <0>         0.0584
     52 H17         7.3989   -8.0232   -1.9884 H         1 <0>         0.0401
     53 H18         7.0798   -7.2498   -0.4238 H         1 <0>         0.0440
     54 H19         6.4404   -8.8706   -0.7592 H         1 <0>         0.0459
     55 H20         6.0310   -3.1862    4.7353 H         1 <0>         0.0456
     56 H21         6.7293   -2.8350    3.1425 H         1 <0>         0.0366
     57 H22         6.2606   -1.5045    4.2187 H         1 <0>         0.0474
     58 H23         5.3842   -0.5386   -0.7426 H         1 <0>         0.0800
     59 H24         6.1956   -2.0004   -1.3135 H         1 <0>         0.0681
     60 H25         4.9119   -1.8947   -3.4517 H         1 <0>         0.0740
     61 H26         4.1396   -0.4017   -2.9334 H         1 <0>         0.0631
     62 H27         7.2104   -0.7195   -3.2063 H         1 <0>         0.0970
     63 H28         7.6418   -0.0344   -1.6309 H         1 <0>         0.0725
     64 H29         3.7703   -3.1244   -1.5692 H         1 <0>         0.0839
     65 H30         4.4419   -4.4093   -3.2714 H         1 <0>         0.4531
     66 H31         5.5979    3.5274   -3.5781 H         1 <0>         0.4798
     67 H32         7.1694    3.9967   -4.1467 H         1 <0>         0.4881
     68 H33         8.8596    0.9082   -3.2729 H         1 <0>         0.4801
     69 H34         9.0560    2.4894   -3.9724 H         1 <0>         0.4806
     70 H35         5.3074    1.3059   -2.5875 H         1 <0>         0.4689
     71 H36         1.4502   -1.6870   -2.4414 H         1 <0>         0.4505
     72 H37         0.5099   -2.9556    2.0129 H         1 <0>         0.4443
@<TRIPOS>BOND
     1    1    2 ar
     2    1    3 ar
     3    2    4 ar
     4    3    6 ar
     5    4    5 ar
     6    4   10 1
     7    5    6 ar
     8    5   24 1
     9    6   35 1
    10    7   15 1
    11    7   30 2
    12    7   34 1
    13    8   23 1
    14    8   25 am
    15    8   31 2
    16    9   26 1
    17    9   27 1
    18    9   28 1
    19   10   16 1
    20   11   13 1
    21   11   17 1
    22   12   15 1
    23   12   17 1
    24   13   25 1
    25   14   16 1
    26   14   24 1
    27   15   25 1
    28   16   18 1
    29   17   19 1
    30   20   21 1
    31   20   22 1
    32   21   23 1
    33   22   28 1
    34   23   29 1
    35   29   35 1
    36   32   35 2
    37   33   35 2
    38    1   36 1
    39    2   37 1
    40    3   38 1
    41   10   39 1
    42   10   40 1
    43   11   41 1
    44   11   42 1
    45   12   43 1
    46   12   44 1
    47   13   45 1
    48   13   46 1
    49   14   47 1
    50   14   48 1
    51   15   49 1
    52   16   50 1
    53   17   51 1
    54   18   52 1
    55   18   53 1
    56   18   54 1
    57   19   55 1
    58   19   56 1
    59   19   57 1
    60   20   58 1
    61   20   59 1
    62   21   60 1
    63   21   61 1
    64   22   62 1
    65   22   63 1
    66   23   64 1
    67   24   65 1
    68   26   66 1
    69   26   67 1
    70   27   68 1
    71   27   69 1
    72   28   70 1
    73   29   71 1
    74   34   72 1
@<TRIPOS>MOLECULE
1dwc_ligand_328
   72    74     0     0     0
SMALL
USER_CHARGES

mmff94s_NoEstat = 81.95
@<TRIPOS>ATOM
      1 C1         -2.2710   -1.6623    7.6435 C.ar      1 <0>        -0.1945
      2 C2         -1.5255   -2.6695    8.2527 C.ar      1 <0>        -0.0294
      3 C3         -2.6085   -1.7664    6.2973 C.ar      1 <0>        -0.0143
      4 C4         -1.1160   -3.7912    7.5176 C.ar      1 <0>        -0.1552
      5 C5         -1.4288   -3.8903    6.1472 C.ar      1 <0>         0.3076
      6 C6         -2.1929   -2.8737    5.5561 C.ar      1 <0>        -0.4908
      7 C7          3.7233   -2.4449    4.7893 C.2       1 <0>         0.5994
      8 C8          0.8654   -1.4427    3.2413 C.2       1 <0>         0.6462
      9 C9          2.0746   -5.2044   -1.4852 C.cat     1 <0>         0.6305
     10 C10        -0.3024   -4.8697    8.1922 C.3       1 <0>        -0.0319
     11 C11         1.7658    0.4222    6.2790 C.3       1 <0>        -0.0918
     12 C12         2.2228   -2.0030    6.6989 C.3       1 <0>        -0.0841
     13 C13         1.9003    0.1799    4.7810 C.3       1 <0>         0.0870
     14 C14        -0.0979   -5.9519    5.9398 C.3       1 <0>         0.2023
     15 C15         2.2690   -2.2605    5.1905 C.3       1 <0>         0.0778
     16 C16        -0.3856   -6.1984    7.4244 C.3       1 <0>        -0.0746
     17 C17         2.6202   -0.5689    7.0736 C.3       1 <0>        -0.0681
     18 C18         0.5827   -7.2241    8.0072 C.3       1 <0>        -0.0944
     19 C19         2.4647   -0.3375    8.5754 C.3       1 <0>        -0.0918
     20 C20         0.0249   -2.8727    0.7002 C.3       1 <0>        -0.1192
     21 C21         0.3004   -3.5693    2.0376 C.3       1 <0>        -0.0916
     22 C22         0.2602   -3.7963   -0.4886 C.3       1 <0>         0.1883
     23 C23        -0.0078   -2.6730    3.2260 C.3       1 <0>         0.1952
     24 N1         -1.0371   -4.9903    5.3941 N.pl3     1 <0>        -0.7670
     25 N2          1.5999   -1.2067    4.4091 N.am      1 <0>        -0.4509
     26 N3          3.3877   -5.6631   -1.4955 N.pl3     1 <0>        -0.8477
     27 N4          1.1890   -5.6621   -2.4548 N.pl3     1 <0>        -0.8633
     28 N5          1.6278   -4.2942   -0.5212 N.pl3     1 <0>        -0.7419
     29 N6         -1.3760   -2.1385    3.1042 N.pl3     1 <0>        -0.8860
     30 O1          4.4523   -1.5599    4.3665 O.2       1 <0>        -0.5199
     31 O2          0.8891   -0.7105    2.2483 O.2       1 <0>        -0.6131
     32 O3         -2.6902   -4.3257    3.4539 O.2       1 <0>        -0.6576
     33 O4         -3.8691   -2.1223    3.7357 O.2       1 <0>        -0.6482
     34 O5          4.1079   -3.7331    4.9617 O.3       1 <0>        -0.6303
     35 S1         -2.6746   -2.9347    3.8647 S.o2      1 <0>         1.5193
     36 H1         -2.5913   -0.7986    8.2197 H         1 <0>         0.1426
     37 H2         -1.2690   -2.5812    9.3057 H         1 <0>         0.1398
     38 H3         -3.1940   -0.9909    5.8138 H         1 <0>         0.1599
     39 H4          0.7390   -4.5290    8.2522 H         1 <0>         0.0574
     40 H5         -0.6633   -5.0246    9.2164 H         1 <0>         0.0629
     41 H6          2.0669    1.4503    6.5123 H         1 <0>         0.0614
     42 H7          0.7128    0.3207    6.5714 H         1 <0>         0.0593
     43 H8          1.1978   -2.1858    7.0494 H         1 <0>         0.0841
     44 H9          2.8666   -2.7151    7.2306 H         1 <0>         0.0679
     45 H10         1.2456    0.8722    4.2416 H         1 <0>         0.0826
     46 H11         2.9258    0.3867    4.4518 H         1 <0>         0.0383
     47 H12         0.9249   -5.5797    5.8021 H         1 <0>         0.0556
     48 H13        -0.1803   -6.8886    5.3775 H         1 <0>         0.0415
     49 H14         1.7884   -3.2235    4.9909 H         1 <0>         0.0851
     50 H15        -1.4032   -6.5999    7.5237 H         1 <0>         0.0639
     51 H16         3.6763   -0.4106    6.8224 H         1 <0>         0.0584
     52 H17         0.3544   -8.2256    7.6305 H         1 <0>         0.0401
     53 H18         1.6132   -6.9794    7.7327 H         1 <0>         0.0440
     54 H19         0.5120   -7.2425    9.0989 H         1 <0>         0.0459
     55 H20         2.1532   -1.2591    9.0761 H         1 <0>         0.0456
     56 H21         3.4121   -0.0103    9.0142 H         1 <0>         0.0366
     57 H22         1.7112    0.4316    8.7697 H         1 <0>         0.0474
     58 H23        -1.0105   -2.5120    0.6824 H         1 <0>         0.0800
     59 H24         0.6776   -1.9980    0.5976 H         1 <0>         0.0681
     60 H25         1.3460   -3.9033    2.0652 H         1 <0>         0.0740
     61 H26        -0.3175   -4.4733    2.1109 H         1 <0>         0.0631
     62 H27         0.0590   -3.2831   -1.4342 H         1 <0>         0.0970
     63 H28        -0.4054   -4.6631   -0.4257 H         1 <0>         0.0725
     64 H29         0.1003   -3.1895    4.1787 H         1 <0>         0.0839
     65 H30        -1.2193   -4.9813    4.3981 H         1 <0>         0.4531
     66 H31         4.0702   -5.3548   -0.8082 H         1 <0>         0.4798
     67 H32         3.7046   -6.3246   -2.2006 H         1 <0>         0.4881
     68 H33         0.2221   -5.3473   -2.4765 H         1 <0>         0.4801
     69 H34         1.4849   -6.3248   -3.1675 H         1 <0>         0.4806
     70 H35         2.3012   -3.9765    0.1776 H         1 <0>         0.4689
     71 H36        -1.4476   -1.1318    2.9219 H         1 <0>         0.4505
     72 H37         5.0446   -3.8732    4.7061 H         1 <0>         0.4443
@<TRIPOS>BOND
     1    1    2 ar
     2    1    3 ar
     3    2    4 ar
     4    3    6 ar
     5    4    5 ar
     6    4   10 1
     7    5    6 ar
     8    5   24 1
     9    6   35 1
    10    7   15 1
    11    7   30 2
    12    7   34 1
    13    8   23 1
    14    8   25 am
    15    8   31 2
    16    9   26 1
    17    9   27 1
    18    9   28 1
    19   10   16 1
    20   11   13 1
    21   11   17 1
    22   12   15 1
    23   12   17 1
    24   13   25 1
    25   14   16 1
    26   14   24 1
    27   15   25 1
    28   16   18 1
    29   17   19 1
    30   20   21 1
    31   20   22 1
    32   21   23 1
    33   22   28 1
    34   23   29 1
    35   29   35 1
    36   32   35 2
    37   33   35 2
    38    1   36 1
    39    2   37 1
    40    3   38 1
    41   10   39 1
    42   10   40 1
    43   11   41 1
    44   11   42 1
    45   12   43 1
    46   12   44 1
    47   13   45 1
    48   13   46 1
    49   14   47 1
    50   14   48 1
    51   15   49 1
    52   16   50 1
    53   17   51 1
    54   18   52 1
    55   18   53 1
    56   18   54 1
    57   19   55 1
    58   19   56 1
    59   19   57 1
    60   20   58 1
    61   20   59 1
    62   21   60 1
    63   21   61 1
    64   22   62 1
    65   22   63 1
    66   23   64 1
    67   24   65 1
    68   26   66 1
    69   26   67 1
    70   27   68 1
    71   27   69 1
    72   28   70 1
    73   29   71 1
    74   34   72 1
@<TRIPOS>MOLECULE
1dwc_ligand_329
   72    74     0     0     0
SMALL
USER_CHARGES

mmff94s_NoEstat = 81.95
@<TRIPOS>ATOM
      1 C1          4.1725   -3.9457    0.5164 C.ar      1 <0>        -0.1945
      2 C2          5.2841   -3.7273    1.3275 C.ar      1 <0>        -0.0294
      3 C3          2.9716   -4.3618    1.0830 C.ar      1 <0>        -0.0143
      4 C4          5.2014   -3.9281    2.7130 C.ar      1 <0>        -0.1552
      5 C5          3.9817   -4.3215    3.2977 C.ar      1 <0>         0.3076
      6 C6          2.8785   -4.5513    2.4628 C.ar      1 <0>        -0.4908
      7 C7         -1.2359   -0.6984    0.6725 C.2       1 <0>         0.5994
      8 C8          0.8654   -1.4427    3.2413 C.2       1 <0>         0.6462
      9 C9         -3.9153   -5.7709    1.2312 C.cat     1 <0>         0.6305
     10 C10         6.4147   -3.6782    3.5763 C.3       1 <0>        -0.0319
     11 C11         1.8315    1.4466    1.1834 C.3       1 <0>        -0.0918
     12 C12         0.9831   -0.3423   -0.3484 C.3       1 <0>        -0.0841
     13 C13         1.0260    0.8397    2.3251 C.3       1 <0>         0.0870
     14 C14         4.9375   -4.1225    5.5597 C.3       1 <0>         0.2023
     15 C15         0.2462   -1.0009    0.8207 C.3       1 <0>         0.0778
     16 C16         6.3180   -4.3739    4.9439 C.3       1 <0>        -0.0746
     17 C17         1.1635    1.1707   -0.1661 C.3       1 <0>        -0.0681
     18 C18         6.6369   -5.8702    4.8481 C.3       1 <0>        -0.0944
     19 C19         1.9862    1.7609   -1.3098 C.3       1 <0>        -0.0918
     20 C20        -2.2331   -3.6727    3.9110 C.3       1 <0>        -0.1192
     21 C21        -1.3133   -2.4479    3.9716 C.3       1 <0>        -0.0916
     22 C22        -2.5436   -4.0884    2.4784 C.3       1 <0>         0.1883
     23 C23        -0.0078   -2.6730    3.2260 C.3       1 <0>         0.1952
     24 N1          3.8720   -4.5353    4.6659 N.pl3     1 <0>        -0.7670
     25 N2          0.7744   -0.5925    2.1333 N.am      1 <0>        -0.4509
     26 N3         -4.7674   -6.8702    1.2149 N.pl3     1 <0>        -0.8477
     27 N4         -3.5313   -5.1930    0.0260 N.pl3     1 <0>        -0.8633
     28 N5         -3.4379   -5.2363    2.4326 N.pl3     1 <0>        -0.7419
     29 N6          0.7961   -3.6905    3.9267 N.pl3     1 <0>        -0.8860
     30 O1         -1.9090   -0.9539   -0.3149 O.2       1 <0>        -0.5199
     31 O2          1.6103   -1.2468    4.2054 O.2       1 <0>        -0.6131
     32 O3          0.4439   -5.3314    1.9729 O.2       1 <0>        -0.6576
     33 O4          1.5968   -6.1309    4.0600 O.2       1 <0>        -0.6482
     34 O5         -1.7163   -0.0998    1.7897 O.3       1 <0>        -0.6303
     35 S1          1.3247   -5.0804    3.0977 S.o2      1 <0>         1.5193
     36 H1          4.2441   -3.7946   -0.5573 H         1 <0>         0.1426
     37 H2          6.2192   -3.4050    0.8758 H         1 <0>         0.1398
     38 H3          2.1006   -4.5409    0.4604 H         1 <0>         0.1599
     39 H4          7.3229   -4.0105    3.0588 H         1 <0>         0.0574
     40 H5          6.4984   -2.5945    3.7281 H         1 <0>         0.0629
     41 H6          1.9320    2.5271    1.3399 H         1 <0>         0.0614
     42 H7          2.8448    1.0248    1.1881 H         1 <0>         0.0593
     43 H8          1.9753   -0.8057   -0.4365 H         1 <0>         0.0841
     44 H9          0.4607   -0.5403   -1.2930 H         1 <0>         0.0679
     45 H10         1.5496    1.0140    3.2709 H         1 <0>         0.0826
     46 H11         0.0484    1.3304    2.4051 H         1 <0>         0.0383
     47 H12         4.8400   -4.6591    6.5101 H         1 <0>         0.0556
     48 H13         4.8208   -3.0544    5.7810 H         1 <0>         0.0415
     49 H14         0.3330   -2.0869    0.7143 H         1 <0>         0.0851
     50 H15         7.0781   -3.9378    5.6038 H         1 <0>         0.0639
     51 H16         0.1795    1.6553   -0.1825 H         1 <0>         0.0584
     52 H17         6.7417   -6.1747    3.8024 H         1 <0>         0.0401
     53 H18         7.5719   -6.0982    5.3686 H         1 <0>         0.0440
     54 H19         5.8369   -6.4634    5.3010 H         1 <0>         0.0459
     55 H20         1.9407    1.1129   -2.1902 H         1 <0>         0.0456
     56 H21         1.6048    2.7479   -1.5883 H         1 <0>         0.0366
     57 H22         3.0342    1.8673   -1.0143 H         1 <0>         0.0474
     58 H23        -1.7621   -4.5101    4.4397 H         1 <0>         0.0800
     59 H24        -3.1768   -3.4520    4.4231 H         1 <0>         0.0681
     60 H25        -1.1204   -2.1894    5.0211 H         1 <0>         0.0740
     61 H26        -1.8263   -1.5854    3.5275 H         1 <0>         0.0631
     62 H27        -1.6292   -4.3436    1.9335 H         1 <0>         0.0970
     63 H28        -3.0347   -3.2659    1.9487 H         1 <0>         0.0725
     64 H29        -0.1638   -2.9774    2.1921 H         1 <0>         0.0839
     65 H30         2.9570   -4.7435    5.0468 H         1 <0>         0.4531
     66 H31        -5.0729   -7.3262    2.0705 H         1 <0>         0.4798
     67 H32        -5.1095   -7.2532    0.3366 H         1 <0>         0.4881
     68 H33        -2.9094   -4.3885    0.0015 H         1 <0>         0.4801
     69 H34        -3.8633   -5.5592   -0.8630 H         1 <0>         0.4806
     70 H35        -3.7374   -5.6822    3.3010 H         1 <0>         0.4689
     71 H36         1.3354   -3.3564    4.7325 H         1 <0>         0.4505
     72 H37        -2.6725    0.1056    1.7130 H         1 <0>         0.4443
@<TRIPOS>BOND
     1    1    2 ar
     2    1    3 ar
     3    2    4 ar
     4    3    6 ar
     5    4    5 ar
     6    4   10 1
     7    5    6 ar
     8    5   24 1
     9    6   35 1
    10    7   15 1
    11    7   30 2
    12    7   34 1
    13    8   23 1
    14    8   25 am
    15    8   31 2
    16    9   26 1
    17    9   27 1
    18    9   28 1
    19   10   16 1
    20   11   13 1
    21   11   17 1
    22   12   15 1
    23   12   17 1
    24   13   25 1
    25   14   16 1
    26   14   24 1
    27   15   25 1
    28   16   18 1
    29   17   19 1
    30   20   21 1
    31   20   22 1
    32   21   23 1
    33   22   28 1
    34   23   29 1
    35   29   35 1
    36   32   35 2
    37   33   35 2
    38    1   36 1
    39    2   37 1
    40    3   38 1
    41   10   39 1
    42   10   40 1
    43   11   41 1
    44   11   42 1
    45   12   43 1
    46   12   44 1
    47   13   45 1
    48   13   46 1
    49   14   47 1
    50   14   48 1
    51   15   49 1
    52   16   50 1
    53   17   51 1
    54   18   52 1
    55   18   53 1
    56   18   54 1
    57   19   55 1
    58   19   56 1
    59   19   57 1
    60   20   58 1
    61   20   59 1
    62   21   60 1
    63   21   61 1
    64   22   62 1
    65   22   63 1
    66   23   64 1
    67   24   65 1
    68   26   66 1
    69   26   67 1
    70   27   68 1
    71   27   69 1
    72   28   70 1
    73   29   71 1
    74   34   72 1
@<TRIPOS>MOLECULE
1dwc_ligand_330
   72    74     0     0     0
SMALL
USER_CHARGES

mmff94s_NoEstat = 81.96
@<TRIPOS>ATOM
      1 C1          2.5114   -5.6807   -0.0973 C.ar      1 <0>        -0.1945
      2 C2          3.8673   -5.6123    0.2155 C.ar      1 <0>        -0.0294
      3 C3          1.5608   -5.5920    0.9152 C.ar      1 <0>        -0.0143
      4 C4          4.2812   -5.4584    1.5465 C.ar      1 <0>        -0.1552
      5 C5          3.3248   -5.3390    2.5738 C.ar      1 <0>         0.3076
      6 C6          1.9651   -5.4258    2.2408 C.ar      1 <0>        -0.4908
      7 C7         -1.4628    0.1636    1.3526 C.2       1 <0>         0.5994
      8 C8          0.8654   -1.4427    3.2413 C.2       1 <0>         0.6462
      9 C9         -5.6874   -4.6342    5.1589 C.cat     1 <0>         0.6305
     10 C10         5.7550   -5.3781    1.8646 C.3       1 <0>        -0.0319
     11 C11         2.1918    0.8805    0.7195 C.3       1 <0>        -0.0918
     12 C12         0.2821   -0.3679   -0.3105 C.3       1 <0>        -0.0841
     13 C13         1.6113    0.6116    2.1020 C.3       1 <0>         0.0870
     14 C14         5.0872   -4.9119    4.2416 C.3       1 <0>         0.2023
     15 C15        -0.2506   -0.7126    1.0828 C.3       1 <0>         0.0778
     16 C16         6.0568   -5.6843    3.3406 C.3       1 <0>        -0.0746
     17 C17         1.0859    0.9390   -0.3376 C.3       1 <0>        -0.0681
     18 C18         6.0291   -7.1895    3.6296 C.3       1 <0>        -0.0944
     19 C19         1.6740    1.1859   -1.7255 C.3       1 <0>        -0.0918
     20 C20        -2.2331   -3.6727    3.9110 C.3       1 <0>        -0.1192
     21 C21        -1.3133   -2.4479    3.9716 C.3       1 <0>        -0.0916
     22 C22        -3.5726   -3.4201    4.5920 C.3       1 <0>         0.1883
     23 C23        -0.0078   -2.6730    3.2260 C.3       1 <0>         0.1952
     24 N1          3.7051   -5.1932    3.9020 N.pl3     1 <0>        -0.7670
     25 N2          0.7744   -0.5925    2.1333 N.am      1 <0>        -0.4509
     26 N3         -6.4864   -5.7715    5.1030 N.pl3     1 <0>        -0.8477
     27 N4         -6.1529   -3.5113    5.8344 N.pl3     1 <0>        -0.8633
     28 N5         -4.4280   -4.5974    4.5508 N.pl3     1 <0>        -0.7419
     29 N6          0.7961   -3.6905    3.9267 N.pl3     1 <0>        -0.8860
     30 O1         -2.4527    0.2312    0.6392 O.2       1 <0>        -0.5199
     31 O2          1.6103   -1.2468    4.2054 O.2       1 <0>        -0.6131
     32 O3         -0.5724   -5.5617    2.8045 O.2       1 <0>        -0.6576
     33 O4          1.1151   -6.1600    4.5705 O.2       1 <0>        -0.6482
     34 O5         -1.2983    0.8686    2.4985 O.3       1 <0>        -0.6303
     35 S1          0.6998   -5.3249    3.4597 S.o2      1 <0>         1.5193
     36 H1          2.1966   -5.8064   -1.1298 H         1 <0>         0.1426
     37 H2          4.6032   -5.6854   -0.5818 H         1 <0>         0.1398
     38 H3          0.5018   -5.6500    0.6842 H         1 <0>         0.1599
     39 H4          6.3190   -6.0672    1.2240 H         1 <0>         0.0574
     40 H5          6.0915   -4.3598    1.6315 H         1 <0>         0.0629
     41 H6          2.7495    1.8244    0.7335 H         1 <0>         0.0614
     42 H7          2.9066    0.0878    0.4640 H         1 <0>         0.0593
     43 H8          0.9336   -1.1873   -0.6438 H         1 <0>         0.0841
     44 H9         -0.5414   -0.3095   -1.0336 H         1 <0>         0.0679
     45 H10         2.4269    0.5309    2.8282 H         1 <0>         0.0826
     46 H11         0.9807    1.4504    2.4206 H         1 <0>         0.0383
     47 H12         5.2594   -5.1654    5.2935 H         1 <0>         0.0556
     48 H13         5.2655   -3.8345    4.1379 H         1 <0>         0.0415
     49 H14        -0.6325   -1.7382    1.0612 H         1 <0>         0.0851
     50 H15         7.0777   -5.3469    3.5580 H         1 <0>         0.0639
     51 H16         0.4173    1.7778   -0.1080 H         1 <0>         0.0584
     52 H17         5.6697   -7.7420    2.7563 H         1 <0>         0.0401
     53 H18         7.0311   -7.5518    3.8781 H         1 <0>         0.0440
     54 H19         5.3653   -7.4070    4.4717 H         1 <0>         0.0459
     55 H20         1.1081    0.6390   -2.4855 H         1 <0>         0.0456
     56 H21         1.6425    2.2512   -1.9725 H         1 <0>         0.0366
     57 H22         2.7156    0.8534   -1.7662 H         1 <0>         0.0474
     58 H23        -2.4032   -3.9506    2.8639 H         1 <0>         0.0800
     59 H24        -1.7473   -4.5245    4.4007 H         1 <0>         0.0681
     60 H25        -1.1204   -2.1894    5.0211 H         1 <0>         0.0740
     61 H26        -1.8263   -1.5854    3.5275 H         1 <0>         0.0631
     62 H27        -4.1071   -2.5906    4.1183 H         1 <0>         0.0970
     63 H28        -3.4143   -3.1637    5.6444 H         1 <0>         0.0725
     64 H29        -0.1638   -2.9774    2.1921 H         1 <0>         0.0839
     65 H30         2.9820   -5.0361    4.5933 H         1 <0>         0.4531
     66 H31        -6.1885   -6.6144    4.6191 H         1 <0>         0.4798
     67 H32        -7.4014   -5.7896    5.5474 H         1 <0>         0.4881
     68 H33        -5.5947   -2.6632    5.8946 H         1 <0>         0.4801
     69 H34        -7.0638   -3.5091    6.2870 H         1 <0>         0.4806
     70 H35        -4.1136   -5.4373    4.0624 H         1 <0>         0.4689
     71 H36         1.6533   -3.3509    4.3757 H         1 <0>         0.4505
     72 H37        -2.0705    1.4427    2.6896 H         1 <0>         0.4443
@<TRIPOS>BOND
     1    1    2 ar
     2    1    3 ar
     3    2    4 ar
     4    3    6 ar
     5    4    5 ar
     6    4   10 1
     7    5    6 ar
     8    5   24 1
     9    6   35 1
    10    7   15 1
    11    7   30 2
    12    7   34 1
    13    8   23 1
    14    8   25 am
    15    8   31 2
    16    9   26 1
    17    9   27 1
    18    9   28 1
    19   10   16 1
    20   11   13 1
    21   11   17 1
    22   12   15 1
    23   12   17 1
    24   13   25 1
    25   14   16 1
    26   14   24 1
    27   15   25 1
    28   16   18 1
    29   17   19 1
    30   20   21 1
    31   20   22 1
    32   21   23 1
    33   22   28 1
    34   23   29 1
    35   29   35 1
    36   32   35 2
    37   33   35 2
    38    1   36 1
    39    2   37 1
    40    3   38 1
    41   10   39 1
    42   10   40 1
    43   11   41 1
    44   11   42 1
    45   12   43 1
    46   12   44 1
    47   13   45 1
    48   13   46 1
    49   14   47 1
    50   14   48 1
    51   15   49 1
    52   16   50 1
    53   17   51 1
    54   18   52 1
    55   18   53 1
    56   18   54 1
    57   19   55 1
    58   19   56 1
    59   19   57 1
    60   20   58 1
    61   20   59 1
    62   21   60 1
    63   21   61 1
    64   22   62 1
    65   22   63 1
    66   23   64 1
    67   24   65 1
    68   26   66 1
    69   26   67 1
    70   27   68 1
    71   27   69 1
    72   28   70 1
    73   29   71 1
    74   34   72 1
@<TRIPOS>MOLECULE
1dwc_ligand_331
   72    74     0     0     0
SMALL
USER_CHARGES

mmff94s_NoEstat = 82.02
@<TRIPOS>ATOM
      1 C1          3.8129   -2.1800    0.5043 C.ar      1 <0>        -0.1945
      2 C2          4.6808   -1.4544    1.3175 C.ar      1 <0>        -0.0294
      3 C3          2.9825   -3.1461    1.0644 C.ar      1 <0>        -0.0143
      4 C4          4.7260   -1.6944    2.6985 C.ar      1 <0>        -0.1552
      5 C5          3.8683   -2.6504    3.2771 C.ar      1 <0>         0.3076
      6 C6          3.0129   -3.3814    2.4399 C.ar      1 <0>        -0.4908
      7 C7         -1.2359   -0.6984    0.6725 C.2       1 <0>         0.5994
      8 C8          0.8654   -1.4427    3.2413 C.2       1 <0>         0.6462
      9 C9         -5.2296   -1.5441    4.6444 C.cat     1 <0>         0.6305
     10 C10         5.6674   -0.8921    3.5643 C.3       1 <0>        -0.0319
     11 C11         1.8315    1.4466    1.1834 C.3       1 <0>        -0.0918
     12 C12         0.9831   -0.3423   -0.3484 C.3       1 <0>        -0.0841
     13 C13         1.0260    0.8397    2.3251 C.3       1 <0>         0.0870
     14 C14         4.6288   -2.0446    5.5409 C.3       1 <0>         0.2023
     15 C15         0.2462   -1.0009    0.8207 C.3       1 <0>         0.0778
     16 C16         5.9450   -1.5685    4.9167 C.3       1 <0>        -0.0746
     17 C17         1.1635    1.1707   -0.1661 C.3       1 <0>        -0.0681
     18 C18         6.9614   -2.7088    4.7877 C.3       1 <0>        -0.0944
     19 C19         1.9862    1.7609   -1.3098 C.3       1 <0>        -0.0918
     20 C20        -2.2331   -3.6727    3.9110 C.3       1 <0>        -0.1192
     21 C21        -1.3133   -2.4479    3.9716 C.3       1 <0>        -0.0916
     22 C22        -3.5726   -3.4201    4.5920 C.3       1 <0>         0.1883
     23 C23        -0.0078   -2.6730    3.2260 C.3       1 <0>         0.1952
     24 N1          3.8960   -2.9148    4.6407 N.pl3     1 <0>        -0.7670
     25 N2          0.7744   -0.5925    2.1333 N.am      1 <0>        -0.4509
     26 N3         -5.9145   -0.5116    4.0122 N.pl3     1 <0>        -0.8477
     27 N4         -5.4713   -1.7931    5.9911 N.pl3     1 <0>        -0.8633
     28 N5         -4.3046   -2.3352    3.9546 N.pl3     1 <0>        -0.7419
     29 N6          0.7961   -3.6905    3.9267 N.pl3     1 <0>        -0.8860
     30 O1         -1.9090   -0.9539   -0.3149 O.2       1 <0>        -0.5199
     31 O2          1.6103   -1.2468    4.2054 O.2       1 <0>        -0.6131
     32 O3          1.2775   -5.2555    1.9386 O.2       1 <0>        -0.6576
     33 O4          2.7012   -5.4164    4.0053 O.2       1 <0>        -0.6482
     34 O5         -1.7163   -0.0998    1.7897 O.3       1 <0>        -0.6303
     35 S1          1.9328   -4.6215    3.0666 S.o2      1 <0>         1.5193
     36 H1          3.7867   -1.9943   -0.5661 H         1 <0>         0.1426
     37 H2          5.3282   -0.7035    0.8708 H         1 <0>         0.1398
     38 H3          2.3066   -3.7218    0.4399 H         1 <0>         0.1599
     39 H4          6.6144   -0.7219    3.0378 H         1 <0>         0.0574
     40 H5          5.2057    0.0881    3.7395 H         1 <0>         0.0629
     41 H6          1.9320    2.5271    1.3399 H         1 <0>         0.0614
     42 H7          2.8448    1.0248    1.1881 H         1 <0>         0.0593
     43 H8          1.9753   -0.8057   -0.4365 H         1 <0>         0.0841
     44 H9          0.4607   -0.5403   -1.2930 H         1 <0>         0.0679
     45 H10         1.5496    1.0140    3.2709 H         1 <0>         0.0826
     46 H11         0.0484    1.3304    2.4051 H         1 <0>         0.0383
     47 H12         4.8217   -2.5758    6.4796 H         1 <0>         0.0556
     48 H13         4.0016   -1.1785    5.7856 H         1 <0>         0.0415
     49 H14         0.3330   -2.0869    0.7143 H         1 <0>         0.0851
     50 H15         6.3979   -0.8252    5.5842 H         1 <0>         0.0639
     51 H16         0.1795    1.6553   -0.1825 H         1 <0>         0.0584
     52 H17         7.1898   -2.9029    3.7355 H         1 <0>         0.0401
     53 H18         7.8931   -2.4532    5.3012 H         1 <0>         0.0440
     54 H19         6.5655   -3.6282    5.2294 H         1 <0>         0.0459
     55 H20         1.9407    1.1129   -2.1902 H         1 <0>         0.0456
     56 H21         1.6048    2.7479   -1.5883 H         1 <0>         0.0366
     57 H22         3.0342    1.8673   -1.0143 H         1 <0>         0.0474
     58 H23        -2.4032   -3.9506    2.8639 H         1 <0>         0.0800
     59 H24        -1.7473   -4.5245    4.4007 H         1 <0>         0.0681
     60 H25        -1.1204   -2.1894    5.0211 H         1 <0>         0.0740
     61 H26        -1.8263   -1.5854    3.5275 H         1 <0>         0.0631
     62 H27        -3.4379   -3.1690    5.6489 H         1 <0>         0.0970
     63 H28        -4.1962   -4.3179    4.5344 H         1 <0>         0.0725
     64 H29        -0.1638   -2.9774    2.1921 H         1 <0>         0.0839
     65 H30         3.2089   -3.5553    5.0190 H         1 <0>         0.4531
     66 H31        -5.7687   -0.2919    3.0305 H         1 <0>         0.4798
     67 H32        -6.5851    0.0593    4.5215 H         1 <0>         0.4881
     68 H33        -4.9880   -2.5400    6.4842 H         1 <0>         0.4801
     69 H34        -6.1390   -1.2353    6.5182 H         1 <0>         0.4806
     70 H35        -4.1486   -2.1282    2.9669 H         1 <0>         0.4689
     71 H36         0.9382   -3.5340    4.9302 H         1 <0>         0.4505
     72 H37        -2.6725    0.1056    1.7130 H         1 <0>         0.4443
@<TRIPOS>BOND
     1    1    2 ar
     2    1    3 ar
     3    2    4 ar
     4    3    6 ar
     5    4    5 ar
     6    4   10 1
     7    5    6 ar
     8    5   24 1
     9    6   35 1
    10    7   15 1
    11    7   30 2
    12    7   34 1
    13    8   23 1
    14    8   25 am
    15    8   31 2
    16    9   26 1
    17    9   27 1
    18    9   28 1
    19   10   16 1
    20   11   13 1
    21   11   17 1
    22   12   15 1
    23   12   17 1
    24   13   25 1
    25   14   16 1
    26   14   24 1
    27   15   25 1
    28   16   18 1
    29   17   19 1
    30   20   21 1
    31   20   22 1
    32   21   23 1
    33   22   28 1
    34   23   29 1
    35   29   35 1
    36   32   35 2
    37   33   35 2
    38    1   36 1
    39    2   37 1
    40    3   38 1
    41   10   39 1
    42   10   40 1
    43   11   41 1
    44   11   42 1
    45   12   43 1
    46   12   44 1
    47   13   45 1
    48   13   46 1
    49   14   47 1
    50   14   48 1
    51   15   49 1
    52   16   50 1
    53   17   51 1
    54   18   52 1
    55   18   53 1
    56   18   54 1
    57   19   55 1
    58   19   56 1
    59   19   57 1
    60   20   58 1
    61   20   59 1
    62   21   60 1
    63   21   61 1
    64   22   62 1
    65   22   63 1
    66   23   64 1
    67   24   65 1
    68   26   66 1
    69   26   67 1
    70   27   68 1
    71   27   69 1
    72   28   70 1
    73   29   71 1
    74   34   72 1
@<TRIPOS>MOLECULE
1dwc_ligand_332
   72    74     0     0     0
SMALL
USER_CHARGES

mmff94s_NoEstat = 82.04
@<TRIPOS>ATOM
      1 C1          1.9247   -5.6076   -5.8968 C.ar      1 <0>        -0.1945
      2 C2          2.8785   -6.5393   -5.4922 C.ar      1 <0>        -0.0294
      3 C3          1.4180   -4.6909   -4.9805 C.ar      1 <0>        -0.0143
      4 C4          3.3347   -6.5563   -4.1664 C.ar      1 <0>        -0.1552
      5 C5          2.8054   -5.6505   -3.2257 C.ar      1 <0>         0.3076
      6 C6          1.8576   -4.7107   -3.6559 C.ar      1 <0>        -0.4908
      7 C7          2.6281   -1.3042    2.5638 C.2       1 <0>         0.5994
      8 C8          2.9466   -1.3973   -0.6457 C.2       1 <0>         0.6462
      9 C9          7.4792    1.6086   -3.5387 C.cat     1 <0>         0.6305
     10 C10         4.3633   -7.5778   -3.7437 C.3       1 <0>        -0.0319
     11 C11         5.7543   -2.0741    1.7663 C.3       1 <0>        -0.0918
     12 C12         4.6161    0.1433    2.3333 C.3       1 <0>        -0.0841
     13 C13         5.2430   -1.7129    0.3758 C.3       1 <0>         0.0870
     14 C14         4.0746   -6.7191   -1.4059 C.3       1 <0>         0.2023
     15 C15         3.4337   -0.4666    1.5844 C.3       1 <0>         0.0778
     16 C16         5.0972   -7.1398   -2.4665 C.3       1 <0>        -0.0746
     17 C17         5.6648   -0.9011    2.7560 C.3       1 <0>        -0.0681
     18 C18         5.9974   -8.2574   -1.9467 C.3       1 <0>        -0.0944
     19 C19         7.0265   -0.2323    2.9523 C.3       1 <0>        -0.0918
     20 C20         4.0666    0.0061   -3.0917 C.3       1 <0>        -0.1192
     21 C21         4.5564   -1.3488   -2.5679 C.3       1 <0>        -0.0916
     22 C22         5.1498    0.7503   -3.8628 C.3       1 <0>         0.1883
     23 C23         3.4544   -2.1251   -1.8653 C.3       1 <0>         0.1952
     24 N1          3.2389   -5.6437   -1.9056 N.pl3     1 <0>        -0.7670
     25 N2          3.8547   -1.2301    0.4039 N.am      1 <0>        -0.4509
     26 N3          8.5899    1.8298   -2.7310 N.pl3     1 <0>        -0.8477
     27 N4          7.5182    2.0100   -4.8696 N.pl3     1 <0>        -0.8633
     28 N5          6.3266    0.9918   -3.0404 N.pl3     1 <0>        -0.7419
     29 N6          2.2741   -2.2179   -2.7432 N.pl3     1 <0>        -0.8860
     30 O1          2.1401   -0.8907    3.6051 O.2       1 <0>        -0.5199
     31 O2          1.7818   -0.9917   -0.6208 O.2       1 <0>        -0.6131
     32 O3         -0.1165   -3.1121   -3.0880 O.2       1 <0>        -0.6576
     33 O4          1.2896   -4.0436   -1.2226 O.2       1 <0>        -0.6482
     34 O5          2.5235   -2.5830    2.1269 O.3       1 <0>        -0.6303
     35 S1          1.1775   -3.5081   -2.5659 S.o2      1 <0>         1.5193
     36 H1          1.5799   -5.5947   -6.9271 H         1 <0>         0.1426
     37 H2          3.2711   -7.2499   -6.2157 H         1 <0>         0.1398
     38 H3          0.6792   -3.9566   -5.2858 H         1 <0>         0.1599
     39 H4          3.8515   -8.5347   -3.5798 H         1 <0>         0.0574
     40 H5          5.0968   -7.7238   -4.5461 H         1 <0>         0.0629
     41 H6          5.1450   -2.9020    2.1525 H         1 <0>         0.0614
     42 H7          6.7810   -2.4531    1.7029 H         1 <0>         0.0593
     43 H8          5.0903    0.8874    1.6785 H         1 <0>         0.0841
     44 H9          4.2733    0.6894    3.2215 H         1 <0>         0.0679
     45 H10         5.8537   -0.9171   -0.0665 H         1 <0>         0.0826
     46 H11         5.3167   -2.5850   -0.2811 H         1 <0>         0.0383
     47 H12         3.4420   -7.5692   -1.1218 H         1 <0>         0.0556
     48 H13         4.5874   -6.3794   -0.4991 H         1 <0>         0.0415
     49 H14         2.7622    0.3365    1.2577 H         1 <0>         0.0851
     50 H15         5.7334   -6.2764   -2.7038 H         1 <0>         0.0639
     51 H16         5.3768   -1.3130    3.7317 H         1 <0>         0.0584
     52 H17         6.6935   -7.8722   -1.1957 H         1 <0>         0.0401
     53 H18         5.3996   -9.0505   -1.4878 H         1 <0>         0.0440
     54 H19         6.5793   -8.6936   -2.7641 H         1 <0>         0.0459
     55 H20         7.5288   -0.6354    3.8367 H         1 <0>         0.0456
     56 H21         7.6683   -0.4045    2.0831 H         1 <0>         0.0366
     57 H22         6.9087    0.8473    3.0852 H         1 <0>         0.0474
     58 H23         3.1961   -0.1462   -3.7411 H         1 <0>         0.0800
     59 H24         3.7428    0.6319   -2.2522 H         1 <0>         0.0681
     60 H25         5.4094   -1.1917   -1.8946 H         1 <0>         0.0740
     61 H26         4.9285   -1.9502   -3.4070 H         1 <0>         0.0631
     62 H27         4.7831    1.7144   -4.2291 H         1 <0>         0.0970
     63 H28         5.4669    0.1582   -4.7272 H         1 <0>         0.0725
     64 H29         3.7703   -3.1244   -1.5692 H         1 <0>         0.0839
     65 H30         2.7759   -5.0262   -1.2500 H         1 <0>         0.4531
     66 H31         8.6061    1.5552   -1.7524 H         1 <0>         0.4798
     67 H32         9.4239    2.2796   -3.1013 H         1 <0>         0.4881
     68 H33         6.7239    1.8637   -5.4879 H         1 <0>         0.4801
     69 H34         8.3428    2.4597   -5.2600 H         1 <0>         0.4806
     70 H35         6.3281    0.7083   -2.0595 H         1 <0>         0.4689
     71 H36         1.9407   -1.3323   -3.1385 H         1 <0>         0.4505
     72 H37         2.0077   -3.1411    2.7472 H         1 <0>         0.4443
@<TRIPOS>BOND
     1    1    2 ar
     2    1    3 ar
     3    2    4 ar
     4    3    6 ar
     5    4    5 ar
     6    4   10 1
     7    5    6 ar
     8    5   24 1
     9    6   35 1
    10    7   15 1
    11    7   30 2
    12    7   34 1
    13    8   23 1
    14    8   25 am
    15    8   31 2
    16    9   26 1
    17    9   27 1
    18    9   28 1
    19   10   16 1
    20   11   13 1
    21   11   17 1
    22   12   15 1
    23   12   17 1
    24   13   25 1
    25   14   16 1
    26   14   24 1
    27   15   25 1
    28   16   18 1
    29   17   19 1
    30   20   21 1
    31   20   22 1
    32   21   23 1
    33   22   28 1
    34   23   29 1
    35   29   35 1
    36   32   35 2
    37   33   35 2
    38    1   36 1
    39    2   37 1
    40    3   38 1
    41   10   39 1
    42   10   40 1
    43   11   41 1
    44   11   42 1
    45   12   43 1
    46   12   44 1
    47   13   45 1
    48   13   46 1
    49   14   47 1
    50   14   48 1
    51   15   49 1
    52   16   50 1
    53   17   51 1
    54   18   52 1
    55   18   53 1
    56   18   54 1
    57   19   55 1
    58   19   56 1
    59   19   57 1
    60   20   58 1
    61   20   59 1
    62   21   60 1
    63   21   61 1
    64   22   62 1
    65   22   63 1
    66   23   64 1
    67   24   65 1
    68   26   66 1
    69   26   67 1
    70   27   68 1
    71   27   69 1
    72   28   70 1
    73   29   71 1
    74   34   72 1
@<TRIPOS>MOLECULE
1dwc_ligand_333
   72    74     0     0     0
SMALL
USER_CHARGES

mmff94s_NoEstat = 82.12
@<TRIPOS>ATOM
      1 C1         -2.1298   -7.0550    2.6197 C.ar      1 <0>        -0.1945
      2 C2         -2.1776   -7.9063    3.7216 C.ar      1 <0>        -0.0294
      3 C3         -1.0466   -6.1974    2.4524 C.ar      1 <0>        -0.0143
      4 C4         -1.1415   -7.9019    4.6667 C.ar      1 <0>        -0.1552
      5 C5         -0.0281   -7.0574    4.4895 C.ar      1 <0>         0.3076
      6 C6         -0.0057   -6.1967    3.3824 C.ar      1 <0>        -0.4908
      7 C7         -1.2359   -0.6984    0.6725 C.2       1 <0>         0.5994
      8 C8          0.8654   -1.4427    3.2413 C.2       1 <0>         0.6462
      9 C9         -5.5866   -1.9509    4.3621 C.cat     1 <0>         0.6305
     10 C10        -1.2075   -8.8376    5.8498 C.3       1 <0>        -0.0319
     11 C11         1.8315    1.4466    1.1834 C.3       1 <0>        -0.0918
     12 C12         0.9831   -0.3423   -0.3484 C.3       1 <0>        -0.0841
     13 C13         1.0260    0.8397    2.3251 C.3       1 <0>         0.0870
     14 C14         1.0959   -8.0346    6.4521 C.3       1 <0>         0.2023
     15 C15         0.2462   -1.0009    0.8207 C.3       1 <0>         0.0778
     16 C16        -0.2880   -8.3979    7.0008 C.3       1 <0>        -0.0746
     17 C17         1.1635    1.1707   -0.1661 C.3       1 <0>        -0.0681
     18 C18        -0.8989   -7.2514    7.8146 C.3       1 <0>        -0.0944
     19 C19         1.9862    1.7609   -1.3098 C.3       1 <0>        -0.0918
     20 C20        -2.2331   -3.6727    3.9110 C.3       1 <0>        -0.1192
     21 C21        -1.3133   -2.4479    3.9716 C.3       1 <0>        -0.0916
     22 C22        -3.5726   -3.4201    4.5920 C.3       1 <0>         0.1883
     23 C23        -0.0078   -2.6730    3.2260 C.3       1 <0>         0.1952
     24 N1          1.0093   -7.0259    5.4129 N.pl3     1 <0>        -0.7670
     25 N2          0.7744   -0.5925    2.1333 N.am      1 <0>        -0.4509
     26 N3         -6.2639   -0.9089    3.7373 N.pl3     1 <0>        -0.8477
     27 N4         -6.1992   -2.6234    5.4140 N.pl3     1 <0>        -0.8633
     28 N5         -4.3046   -2.3352    3.9546 N.pl3     1 <0>        -0.7419
     29 N6          0.7961   -3.6905    3.9267 N.pl3     1 <0>        -0.8860
     30 O1         -1.8192    0.2321    1.2084 O.2       1 <0>        -0.5199
     31 O2          1.6103   -1.2468    4.2054 O.2       1 <0>        -0.6131
     32 O3          2.5030   -5.6116    3.7560 O.2       1 <0>        -0.6576
     33 O4          1.3467   -4.8031    1.6743 O.2       1 <0>        -0.6482
     34 O5         -1.8312   -1.6071   -0.1380 O.3       1 <0>        -0.6303
     35 S1          1.3247   -5.0804    3.0977 S.o2      1 <0>         1.5193
     36 H1         -2.9384   -7.0582    1.8938 H         1 <0>         0.1426
     37 H2         -3.0292   -8.5710    3.8458 H         1 <0>         0.1398
     38 H3         -1.0014   -5.5255    1.6011 H         1 <0>         0.1599
     39 H4         -2.2393   -8.9161    6.2138 H         1 <0>         0.0574
     40 H5         -0.9020   -9.8336    5.5046 H         1 <0>         0.0629
     41 H6          1.9320    2.5271    1.3399 H         1 <0>         0.0614
     42 H7          2.8448    1.0248    1.1881 H         1 <0>         0.0593
     43 H8          1.9753   -0.8057   -0.4365 H         1 <0>         0.0841
     44 H9          0.4607   -0.5403   -1.2930 H         1 <0>         0.0679
     45 H10         1.5496    1.0140    3.2709 H         1 <0>         0.0826
     46 H11         0.0484    1.3304    2.4051 H         1 <0>         0.0383
     47 H12         1.7419   -7.6685    7.2578 H         1 <0>         0.0556
     48 H13         1.5757   -8.9299    6.0380 H         1 <0>         0.0415
     49 H14         0.3330   -2.0869    0.7143 H         1 <0>         0.0851
     50 H15        -0.1776   -9.2426    7.6919 H         1 <0>         0.0639
     51 H16         0.1795    1.6553   -0.1825 H         1 <0>         0.0584
     52 H17        -1.8108   -6.8831    7.3352 H         1 <0>         0.0401
     53 H18        -1.1526   -7.5890    8.8240 H         1 <0>         0.0440
     54 H19        -0.1929   -6.4196    7.8967 H         1 <0>         0.0459
     55 H20         1.9407    1.1129   -2.1902 H         1 <0>         0.0456
     56 H21         1.6048    2.7479   -1.5883 H         1 <0>         0.0366
     57 H22         3.0342    1.8673   -1.0143 H         1 <0>         0.0474
     58 H23        -2.4032   -3.9506    2.8639 H         1 <0>         0.0800
     59 H24        -1.7473   -4.5245    4.4007 H         1 <0>         0.0681
     60 H25        -1.1204   -2.1894    5.0211 H         1 <0>         0.0740
     61 H26        -1.8263   -1.5854    3.5275 H         1 <0>         0.0631
     62 H27        -3.4379   -3.1690    5.6489 H         1 <0>         0.0970
     63 H28        -4.1962   -4.3179    4.5344 H         1 <0>         0.0725
     64 H29        -0.1638   -2.9774    2.1921 H         1 <0>         0.0839
     65 H30         1.8214   -6.4586    5.2027 H         1 <0>         0.4531
     66 H31        -5.8550   -0.3880    2.9661 H         1 <0>         0.4798
     67 H32        -7.1958   -0.6354    4.0404 H         1 <0>         0.4881
     68 H33        -5.7325   -3.3897    5.8930 H         1 <0>         0.4801
     69 H34        -7.1311   -2.3670    5.7313 H         1 <0>         0.4806
     70 H35        -3.8810   -1.8227    3.1796 H         1 <0>         0.4689
     71 H36         1.3354   -3.3564    4.7325 H         1 <0>         0.4505
     72 H37        -2.7902   -1.4300   -0.2450 H         1 <0>         0.4443
@<TRIPOS>BOND
     1    1    2 ar
     2    1    3 ar
     3    2    4 ar
     4    3    6 ar
     5    4    5 ar
     6    4   10 1
     7    5    6 ar
     8    5   24 1
     9    6   35 1
    10    7   15 1
    11    7   30 2
    12    7   34 1
    13    8   23 1
    14    8   25 am
    15    8   31 2
    16    9   26 1
    17    9   27 1
    18    9   28 1
    19   10   16 1
    20   11   13 1
    21   11   17 1
    22   12   15 1
    23   12   17 1
    24   13   25 1
    25   14   16 1
    26   14   24 1
    27   15   25 1
    28   16   18 1
    29   17   19 1
    30   20   21 1
    31   20   22 1
    32   21   23 1
    33   22   28 1
    34   23   29 1
    35   29   35 1
    36   32   35 2
    37   33   35 2
    38    1   36 1
    39    2   37 1
    40    3   38 1
    41   10   39 1
    42   10   40 1
    43   11   41 1
    44   11   42 1
    45   12   43 1
    46   12   44 1
    47   13   45 1
    48   13   46 1
    49   14   47 1
    50   14   48 1
    51   15   49 1
    52   16   50 1
    53   17   51 1
    54   18   52 1
    55   18   53 1
    56   18   54 1
    57   19   55 1
    58   19   56 1
    59   19   57 1
    60   20   58 1
    61   20   59 1
    62   21   60 1
    63   21   61 1
    64   22   62 1
    65   22   63 1
    66   23   64 1
    67   24   65 1
    68   26   66 1
    69   26   67 1
    70   27   68 1
    71   27   69 1
    72   28   70 1
    73   29   71 1
    74   34   72 1
@<TRIPOS>MOLECULE
1dwc_ligand_334
   72    74     0     0     0
SMALL
USER_CHARGES

mmff94s_NoEstat = 82.13
@<TRIPOS>ATOM
      1 C1         -2.8852   -6.7028    4.6044 C.ar      1 <0>        -0.1945
      2 C2         -2.7574   -6.8464    5.9843 C.ar      1 <0>        -0.0294
      3 C3         -1.8117   -6.2329    3.8538 C.ar      1 <0>        -0.0143
      4 C4         -1.5535   -6.5163    6.6233 C.ar      1 <0>        -0.1552
      5 C5         -0.4531   -6.0672    5.8671 C.ar      1 <0>         0.3076
      6 C6         -0.6063   -5.9145    4.4813 C.ar      1 <0>        -0.4908
      7 C7          0.0474   -1.6003   -0.0563 C.2       1 <0>         0.5994
      8 C8          0.8654   -1.4427    3.2413 C.2       1 <0>         0.6462
      9 C9         -4.5827   -3.2129    6.2808 C.cat     1 <0>         0.6305
     10 C10        -1.4319   -6.6865    8.1186 C.3       1 <0>        -0.0319
     11 C11         2.7802    0.7752    1.0208 C.3       1 <0>        -0.0918
     12 C12         2.5085   -1.4277   -0.1368 C.3       1 <0>        -0.0841
     13 C13         1.5404    0.4804    1.8554 C.3       1 <0>         0.0870
     14 C14         0.9870   -6.0549    7.8660 C.3       1 <0>         0.2023
     15 C15         1.3165   -1.7600    0.7646 C.3       1 <0>         0.0778
     16 C16        -0.2760   -5.8653    8.7129 C.3       1 <0>        -0.0746
     17 C17         2.7020    0.0809   -0.3413 C.3       1 <0>        -0.0681
     18 C18        -0.6451   -4.3852    8.8648 C.3       1 <0>        -0.0944
     19 C19         3.9570    0.3602   -1.1659 C.3       1 <0>        -0.0918
     20 C20        -1.0866   -2.1427    5.4567 C.3       1 <0>        -0.1192
     21 C21        -1.3133   -2.4479    3.9716 C.3       1 <0>        -0.0916
     22 C22        -2.3970   -1.9935    6.2196 C.3       1 <0>         0.1883
     23 C23        -0.0078   -2.6730    3.2260 C.3       1 <0>         0.1952
     24 N1          0.7493   -5.7256    6.4733 N.pl3     1 <0>        -0.7670
     25 N2          1.2915   -0.9578    1.9994 N.am      1 <0>        -0.4509
     26 N3         -5.3150   -4.3946    6.2340 N.pl3     1 <0>        -0.8477
     27 N4         -5.2542   -2.0049    6.4353 N.pl3     1 <0>        -0.8633
     28 N5         -3.1876   -3.2152    6.1760 N.pl3     1 <0>        -0.7419
     29 N6          0.7961   -3.6905    3.9267 N.pl3     1 <0>        -0.8860
     30 O1         -0.6384   -0.5898   -0.0988 O.2       1 <0>        -0.5199
     31 O2          1.1650   -0.9321    4.3240 O.2       1 <0>        -0.6131
     32 O3          1.9178   -6.0078    3.8522 O.2       1 <0>        -0.6576
     33 O4          0.2309   -5.3989    2.0892 O.2       1 <0>        -0.6482
     34 O5         -0.2271   -2.7383   -0.7395 O.3       1 <0>        -0.6303
     35 S1          0.6998   -5.3249    3.4597 S.o2      1 <0>         1.5193
     36 H1         -3.8225   -6.9542    4.1154 H         1 <0>         0.1426
     37 H2         -3.6024   -7.2116    6.5633 H         1 <0>         0.1398
     38 H3         -1.9015   -6.1112    2.7788 H         1 <0>         0.1599
     39 H4         -2.3718   -6.4061    8.6096 H         1 <0>         0.0574
     40 H5         -1.2585   -7.7513    8.3199 H         1 <0>         0.0629
     41 H6          2.8818    1.8586    0.8858 H         1 <0>         0.0614
     42 H7          3.6725    0.4327    1.5603 H         1 <0>         0.0593
     43 H8          3.4165   -1.8382    0.3259 H         1 <0>         0.0841
     44 H9          2.4035   -1.9216   -1.1111 H         1 <0>         0.0679
     45 H10         1.6443    0.9520    2.8381 H         1 <0>         0.0826
     46 H11         0.6509    0.9155    1.3839 H         1 <0>         0.0383
     47 H12         1.8016   -5.4313    8.2507 H         1 <0>         0.0556
     48 H13         1.3225   -7.0973    7.9316 H         1 <0>         0.0415
     49 H14         1.3647   -2.8230    1.0210 H         1 <0>         0.0851
     50 H15        -0.0760   -6.2391    9.7247 H         1 <0>         0.0639
     51 H16         1.8454    0.4816   -0.8972 H         1 <0>         0.0584
     52 H17        -1.6128   -4.1805    8.3973 H         1 <0>         0.0401
     53 H18        -0.7085   -4.1113    9.9222 H         1 <0>         0.0440
     54 H19         0.1084   -3.7505    8.3890 H         1 <0>         0.0459
     55 H20         4.2296   -0.5171   -1.7602 H         1 <0>         0.0456
     56 H21         3.7904    1.1997   -1.8474 H         1 <0>         0.0366
     57 H22         4.7987    0.6086   -0.5125 H         1 <0>         0.0474
     58 H23        -0.4913   -2.9455    5.9081 H         1 <0>         0.0800
     59 H24        -0.5143   -1.2136    5.5600 H         1 <0>         0.0681
     60 H25        -1.8840   -1.6286    3.5148 H         1 <0>         0.0740
     61 H26        -1.9315   -3.3495    3.8758 H         1 <0>         0.0631
     62 H27        -3.0022   -1.1781    5.8107 H         1 <0>         0.0970
     63 H28        -2.1935   -1.7693    7.2716 H         1 <0>         0.0725
     64 H29        -0.1638   -2.9774    2.1921 H         1 <0>         0.0839
     65 H30         1.5327   -5.4807    5.8802 H         1 <0>         0.4531
     66 H31        -4.8675   -5.3002    6.1203 H         1 <0>         0.4798
     67 H32        -6.3295   -4.3840    6.3104 H         1 <0>         0.4881
     68 H33        -4.7498   -1.1225    6.4734 H         1 <0>         0.4801
     69 H34        -6.2677   -1.9724    6.5154 H         1 <0>         0.4806
     70 H35        -2.7230   -4.1175    6.0634 H         1 <0>         0.4689
     71 H36         1.6533   -3.3509    4.3757 H         1 <0>         0.4505
     72 H37        -1.0450   -2.6560   -1.2749 H         1 <0>         0.4443
@<TRIPOS>BOND
     1    1    2 ar
     2    1    3 ar
     3    2    4 ar
     4    3    6 ar
     5    4    5 ar
     6    4   10 1
     7    5    6 ar
     8    5   24 1
     9    6   35 1
    10    7   15 1
    11    7   30 2
    12    7   34 1
    13    8   23 1
    14    8   25 am
    15    8   31 2
    16    9   26 1
    17    9   27 1
    18    9   28 1
    19   10   16 1
    20   11   13 1
    21   11   17 1
    22   12   15 1
    23   12   17 1
    24   13   25 1
    25   14   16 1
    26   14   24 1
    27   15   25 1
    28   16   18 1
    29   17   19 1
    30   20   21 1
    31   20   22 1
    32   21   23 1
    33   22   28 1
    34   23   29 1
    35   29   35 1
    36   32   35 2
    37   33   35 2
    38    1   36 1
    39    2   37 1
    40    3   38 1
    41   10   39 1
    42   10   40 1
    43   11   41 1
    44   11   42 1
    45   12   43 1
    46   12   44 1
    47   13   45 1
    48   13   46 1
    49   14   47 1
    50   14   48 1
    51   15   49 1
    52   16   50 1
    53   17   51 1
    54   18   52 1
    55   18   53 1
    56   18   54 1
    57   19   55 1
    58   19   56 1
    59   19   57 1
    60   20   58 1
    61   20   59 1
    62   21   60 1
    63   21   61 1
    64   22   62 1
    65   22   63 1
    66   23   64 1
    67   24   65 1
    68   26   66 1
    69   26   67 1
    70   27   68 1
    71   27   69 1
    72   28   70 1
    73   29   71 1
    74   34   72 1
@<TRIPOS>MOLECULE
1dwc_ligand_335
   72    74     0     0     0
SMALL
USER_CHARGES

mmff94s_NoEstat = 82.18
@<TRIPOS>ATOM
      1 C1         -2.9821   -5.2402    6.1755 C.ar      1 <0>        -0.1945
      2 C2         -4.2536   -5.5662    5.7083 C.ar      1 <0>        -0.0294
      3 C3         -2.3862   -4.0437    5.7881 C.ar      1 <0>        -0.0143
      4 C4         -4.9394   -4.6928    4.8521 C.ar      1 <0>        -0.1552
      5 C5         -4.3313   -3.4931    4.4321 C.ar      1 <0>         0.3076
      6 C6         -3.0575   -3.1757    4.9254 C.ar      1 <0>        -0.4908
      7 C7          2.5084    0.3236    5.6389 C.2       1 <0>         0.5994
      8 C8          0.8654   -1.4427    3.2413 C.2       1 <0>         0.6462
      9 C9          0.2237   -3.7376   -2.9912 C.cat     1 <0>         0.6305
     10 C10        -6.3137   -5.0656    4.3497 C.3       1 <0>        -0.0319
     11 C11         3.7918   -3.1079    4.7178 C.3       1 <0>        -0.0918
     12 C12         4.3679   -0.6960    4.3756 C.3       1 <0>        -0.0841
     13 C13         2.3136   -2.7413    4.7550 C.3       1 <0>         0.0870
     14 C14        -6.2170   -3.0044    2.9255 C.3       1 <0>         0.2023
     15 C15         2.8792   -0.3425    4.3241 C.3       1 <0>         0.0778
     16 C16        -7.0924   -3.8286    3.8752 C.3       1 <0>        -0.0746
     17 C17         4.6572   -1.9474    5.2154 C.3       1 <0>        -0.0681
     18 C18        -8.3998   -4.2353    3.2009 C.3       1 <0>        -0.0944
     19 C19         6.1396   -2.3107    5.1549 C.3       1 <0>        -0.0918
     20 C20         0.0249   -2.8727    0.7002 C.3       1 <0>        -0.1192
     21 C21         0.3004   -3.5693    2.0376 C.3       1 <0>        -0.0916
     22 C22         0.2602   -3.7963   -0.4886 C.3       1 <0>         0.1883
     23 C23        -0.0078   -2.6730    3.2260 C.3       1 <0>         0.1952
     24 N1         -4.9870   -2.6082    3.5850 N.pl3     1 <0>        -0.7670
     25 N2          2.0252   -1.5038    4.0223 N.am      1 <0>        -0.4509
     26 N3         -0.0152   -3.0669   -4.1862 N.pl3     1 <0>        -0.8477
     27 N4          0.6744   -5.0526   -3.0302 N.pl3     1 <0>        -0.8633
     28 N5          0.0202   -3.1173   -1.7538 N.pl3     1 <0>        -0.7419
     29 N6         -1.3760   -2.1385    3.1042 N.pl3     1 <0>        -0.8860
     30 O1          2.0403   -0.2521    6.6099 O.2       1 <0>        -0.5199
     31 O2          0.5240   -0.4555    2.5844 O.2       1 <0>        -0.6131
     32 O3         -3.2514   -0.7039    4.1330 O.2       1 <0>        -0.6576
     33 O4         -1.2997   -1.3890    5.5632 O.2       1 <0>        -0.6482
     34 O5          2.7656    1.6536    5.5910 O.3       1 <0>        -0.6303
     35 S1         -2.2397   -1.6774    4.4970 S.o2      1 <0>         1.5193
     36 H1         -2.4581   -5.9177    6.8441 H         1 <0>         0.1426
     37 H2         -4.7127   -6.5018    6.0186 H         1 <0>         0.1398
     38 H3         -1.3986   -3.7764    6.1505 H         1 <0>         0.1599
     39 H4         -6.1970   -5.7813    3.5259 H         1 <0>         0.0574
     40 H5         -6.8810   -5.5622    5.1465 H         1 <0>         0.0629
     41 H6          3.9641   -3.9977    5.3349 H         1 <0>         0.0614
     42 H7          4.0768   -3.3683    3.6904 H         1 <0>         0.0593
     43 H8          4.7163   -0.8743    3.3490 H         1 <0>         0.0841
     44 H9          4.9510    0.1500    4.7611 H         1 <0>         0.0679
     45 H10         1.7240   -3.5716    4.3527 H         1 <0>         0.0826
     46 H11         1.9849   -2.5868    5.7898 H         1 <0>         0.0383
     47 H12        -5.9766   -3.5818    2.0242 H         1 <0>         0.0556
     48 H13        -6.7526   -2.1053    2.6011 H         1 <0>         0.0415
     49 H14         2.7341    0.4259    3.5582 H         1 <0>         0.0851
     50 H15        -7.3408   -3.2116    4.7494 H         1 <0>         0.0639
     51 H16         4.4098   -1.7422    6.2643 H         1 <0>         0.0584
     52 H17        -9.0584   -3.3693    3.0856 H         1 <0>         0.0401
     53 H18        -8.2066   -4.6557    2.2094 H         1 <0>         0.0440
     54 H19        -8.9224   -4.9882    3.7985 H         1 <0>         0.0459
     55 H20         6.6929   -1.5714    4.5681 H         1 <0>         0.0456
     56 H21         6.5688   -2.3436    6.1607 H         1 <0>         0.0366
     57 H22         6.2762   -3.2916    4.6898 H         1 <0>         0.0474
     58 H23        -1.0105   -2.5120    0.6824 H         1 <0>         0.0800
     59 H24         0.6776   -1.9980    0.5976 H         1 <0>         0.0681
     60 H25         1.3460   -3.9033    2.0652 H         1 <0>         0.0740
     61 H26        -0.3175   -4.4733    2.1109 H         1 <0>         0.0631
     62 H27        -0.3909   -4.6751   -0.4416 H         1 <0>         0.0970
     63 H28         1.2981   -4.1440   -0.4920 H         1 <0>         0.0725
     64 H29         0.1003   -3.1895    4.1787 H         1 <0>         0.0839
     65 H30        -4.4812   -1.7970    3.2511 H         1 <0>         0.4531
     66 H31        -0.3470   -2.1063   -4.2064 H         1 <0>         0.4798
     67 H32         0.1347   -3.5257   -5.0818 H         1 <0>         0.4881
     68 H33         0.8589   -5.5723   -2.1756 H         1 <0>         0.4801
     69 H34         0.8324   -5.5290   -3.9149 H         1 <0>         0.4806
     70 H35        -0.3110   -2.1514   -1.7574 H         1 <0>         0.4689
     71 H36        -1.6042   -1.6955    2.2078 H         1 <0>         0.4505
     72 H37         2.5309    2.1027    6.4310 H         1 <0>         0.4443
@<TRIPOS>BOND
     1    1    2 ar
     2    1    3 ar
     3    2    4 ar
     4    3    6 ar
     5    4    5 ar
     6    4   10 1
     7    5    6 ar
     8    5   24 1
     9    6   35 1
    10    7   15 1
    11    7   30 2
    12    7   34 1
    13    8   23 1
    14    8   25 am
    15    8   31 2
    16    9   26 1
    17    9   27 1
    18    9   28 1
    19   10   16 1
    20   11   13 1
    21   11   17 1
    22   12   15 1
    23   12   17 1
    24   13   25 1
    25   14   16 1
    26   14   24 1
    27   15   25 1
    28   16   18 1
    29   17   19 1
    30   20   21 1
    31   20   22 1
    32   21   23 1
    33   22   28 1
    34   23   29 1
    35   29   35 1
    36   32   35 2
    37   33   35 2
    38    1   36 1
    39    2   37 1
    40    3   38 1
    41   10   39 1
    42   10   40 1
    43   11   41 1
    44   11   42 1
    45   12   43 1
    46   12   44 1
    47   13   45 1
    48   13   46 1
    49   14   47 1
    50   14   48 1
    51   15   49 1
    52   16   50 1
    53   17   51 1
    54   18   52 1
    55   18   53 1
    56   18   54 1
    57   19   55 1
    58   19   56 1
    59   19   57 1
    60   20   58 1
    61   20   59 1
    62   21   60 1
    63   21   61 1
    64   22   62 1
    65   22   63 1
    66   23   64 1
    67   24   65 1
    68   26   66 1
    69   26   67 1
    70   27   68 1
    71   27   69 1
    72   28   70 1
    73   29   71 1
    74   34   72 1
@<TRIPOS>MOLECULE
1dwc_ligand_336
   72    74     0     0     0
SMALL
USER_CHARGES

mmff94s_NoEstat = 82.21
@<TRIPOS>ATOM
      1 C1          6.0993    1.4466   -2.1065 C.ar      1 <0>        -0.1945
      2 C2          6.6501    1.8338   -0.8867 C.ar      1 <0>        -0.0294
      3 C3          5.9659    0.0949   -2.4093 C.ar      1 <0>        -0.0143
      4 C4          7.0752    0.8687    0.0378 C.ar      1 <0>        -0.1552
      5 C5          6.9172   -0.5013   -0.2491 C.ar      1 <0>         0.3076
      6 C6          6.3751   -0.8712   -1.4886 C.ar      1 <0>        -0.4908
      7 C7          2.8752    1.3115    1.1058 C.2       1 <0>         0.5994
      8 C8          2.9466   -1.3973   -0.6457 C.2       1 <0>         0.6462
      9 C9         -2.2980   -3.2816   -4.1919 C.cat     1 <0>         0.6305
     10 C10         7.6621    1.3081    1.3577 C.3       1 <0>        -0.0319
     11 C11         2.3641    2.0271   -2.0925 C.3       1 <0>        -0.0918
     12 C12         0.7649    1.6065   -0.1433 C.3       1 <0>        -0.0841
     13 C13         2.2856    0.5067   -2.1800 C.3       1 <0>         0.0870
     14 C14         7.7186   -1.1213    1.9966 C.3       1 <0>         0.2023
     15 C15         1.8211    0.5897    0.2827 C.3       1 <0>         0.0778
     16 C16         8.4905    0.2021    2.0315 C.3       1 <0>        -0.0746
     17 C17         1.2898    2.6259   -1.1701 C.3       1 <0>        -0.0681
     18 C18         9.8828    0.0681    1.4043 C.3       1 <0>        -0.0944
     19 C19         0.1276    3.2108   -1.9746 C.3       1 <0>        -0.0918
     20 C20         1.1084   -2.3549   -2.7950 C.3       1 <0>        -0.1192
     21 C21         2.4114   -3.0756   -2.4306 C.3       1 <0>        -0.0916
     22 C22         0.0368   -3.3189   -3.2890 C.3       1 <0>         0.1883
     23 C23         3.4544   -2.1251   -1.8653 C.3       1 <0>         0.1952
     24 N1          7.3359   -1.4796    0.6439 N.pl3     1 <0>        -0.7670
     25 N2          2.3949   -0.1309   -0.8598 N.am      1 <0>        -0.4509
     26 N3         -3.4568   -2.5916   -4.5325 N.pl3     1 <0>        -0.8477
     27 N4         -2.2453   -4.6572   -4.3892 N.pl3     1 <0>        -0.8633
     28 N5         -1.1871   -2.6212   -3.6562 N.pl3     1 <0>        -0.7419
     29 N6          4.6097   -2.8934   -1.3678 N.pl3     1 <0>        -0.8860
     30 O1          3.9082    1.7887    0.6602 O.2       1 <0>        -0.5199
     31 O2          3.0377   -1.9312    0.4627 O.2       1 <0>        -0.6131
     32 O3          6.1698   -2.6265   -3.3996 O.2       1 <0>        -0.6576
     33 O4          7.1388   -3.3235   -1.1861 O.2       1 <0>        -0.6482
     34 O5          2.5161    1.3542    2.4121 O.3       1 <0>        -0.6303
     35 S1          6.1736   -2.5573   -1.9508 S.o2      1 <0>         1.5193
     36 H1          5.7774    2.1988   -2.8216 H         1 <0>         0.1426
     37 H2          6.7532    2.8923   -0.6597 H         1 <0>         0.1398
     38 H3          5.5438   -0.2186   -3.3589 H         1 <0>         0.1599
     39 H4          8.2854    2.1996    1.2173 H         1 <0>         0.0574
     40 H5          6.8297    1.5871    2.0163 H         1 <0>         0.0629
     41 H6          3.3521    2.2982   -1.6971 H         1 <0>         0.0614
     42 H7          2.3049    2.4652   -3.0956 H         1 <0>         0.0593
     43 H8         -0.0830    1.0592   -0.5778 H         1 <0>         0.0841
     44 H9          0.3696    2.1440    0.7282 H         1 <0>         0.0679
     45 H10         1.3285    0.1928   -2.6129 H         1 <0>         0.0826
     46 H11         3.0787    0.1346   -2.8358 H         1 <0>         0.0383
     47 H12         8.3236   -1.9275    2.4264 H         1 <0>         0.0556
     48 H13         6.8136   -1.0372    2.6107 H         1 <0>         0.0415
     49 H14         1.3638   -0.1412    0.9605 H         1 <0>         0.0851
     50 H15         8.6498    0.4846    3.0794 H         1 <0>         0.0639
     51 H16         1.7477    3.4645   -0.6301 H         1 <0>         0.0584
     52 H17         9.9651    0.6973    0.5130 H         1 <0>         0.0401
     53 H18        10.6559    0.3748    2.1151 H         1 <0>         0.0440
     54 H19        10.0747   -0.9689    1.1126 H         1 <0>         0.0459
     55 H20         0.4103    4.1714   -2.4154 H         1 <0>         0.0456
     56 H21        -0.1604    2.5322   -2.7831 H         1 <0>         0.0366
     57 H22        -0.7432    3.3698   -1.3317 H         1 <0>         0.0474
     58 H23         0.7341   -1.8112   -1.9193 H         1 <0>         0.0800
     59 H24         1.3022   -1.6154   -3.5806 H         1 <0>         0.0681
     60 H25         2.8001   -3.5947   -3.3165 H         1 <0>         0.0740
     61 H26         2.2014   -3.8505   -1.6824 H         1 <0>         0.0631
     62 H27        -0.2083   -4.0632   -2.5248 H         1 <0>         0.0970
     63 H28         0.3931   -3.8504   -4.1772 H         1 <0>         0.0725
     64 H29         3.7902   -1.3903   -2.5956 H         1 <0>         0.0839
     65 H30         7.1323   -2.4472    0.4253 H         1 <0>         0.4531
     66 H31        -3.5414   -1.5868   -4.4042 H         1 <0>         0.4798
     67 H32        -4.2604   -3.0798   -4.9210 H         1 <0>         0.4881
     68 H33        -1.4139   -5.1926   -4.1511 H         1 <0>         0.4801
     69 H34        -3.0369   -5.1641   -4.7779 H         1 <0>         0.4806
     70 H35        -1.2558   -1.6112   -3.5231 H         1 <0>         0.4689
     71 H36         4.5044   -3.3037   -0.4338 H         1 <0>         0.4505
     72 H37         3.1856    1.8153    2.9613 H         1 <0>         0.4443
@<TRIPOS>BOND
     1    1    2 ar
     2    1    3 ar
     3    2    4 ar
     4    3    6 ar
     5    4    5 ar
     6    4   10 1
     7    5    6 ar
     8    5   24 1
     9    6   35 1
    10    7   15 1
    11    7   30 2
    12    7   34 1
    13    8   23 1
    14    8   25 am
    15    8   31 2
    16    9   26 1
    17    9   27 1
    18    9   28 1
    19   10   16 1
    20   11   13 1
    21   11   17 1
    22   12   15 1
    23   12   17 1
    24   13   25 1
    25   14   16 1
    26   14   24 1
    27   15   25 1
    28   16   18 1
    29   17   19 1
    30   20   21 1
    31   20   22 1
    32   21   23 1
    33   22   28 1
    34   23   29 1
    35   29   35 1
    36   32   35 2
    37   33   35 2
    38    1   36 1
    39    2   37 1
    40    3   38 1
    41   10   39 1
    42   10   40 1
    43   11   41 1
    44   11   42 1
    45   12   43 1
    46   12   44 1
    47   13   45 1
    48   13   46 1
    49   14   47 1
    50   14   48 1
    51   15   49 1
    52   16   50 1
    53   17   51 1
    54   18   52 1
    55   18   53 1
    56   18   54 1
    57   19   55 1
    58   19   56 1
    59   19   57 1
    60   20   58 1
    61   20   59 1
    62   21   60 1
    63   21   61 1
    64   22   62 1
    65   22   63 1
    66   23   64 1
    67   24   65 1
    68   26   66 1
    69   26   67 1
    70   27   68 1
    71   27   69 1
    72   28   70 1
    73   29   71 1
    74   34   72 1
@<TRIPOS>MOLECULE
1dwc_ligand_337
   72    74     0     0     0
SMALL
USER_CHARGES

mmff94s_NoEstat = 82.21
@<TRIPOS>ATOM
      1 C1         -3.5298   -6.2535    4.3510 C.ar      1 <0>        -0.1945
      2 C2         -4.3901   -6.3642    3.2606 C.ar      1 <0>        -0.0294
      3 C3         -2.9628   -5.0220    4.6653 C.ar      1 <0>        -0.0143
      4 C4         -4.6918   -5.2398    2.4790 C.ar      1 <0>        -0.1552
      5 C5         -4.0992   -3.9956    2.7730 C.ar      1 <0>         0.3076
      6 C6         -3.2482   -3.9013    3.8837 C.ar      1 <0>        -0.4908
      7 C7          3.7233   -2.4449    4.7893 C.2       1 <0>         0.5994
      8 C8          0.8654   -1.4427    3.2413 C.2       1 <0>         0.6462
      9 C9          2.0746   -5.2044   -1.4852 C.cat     1 <0>         0.6305
     10 C10        -5.6204   -5.3796    1.2965 C.3       1 <0>        -0.0319
     11 C11         1.7658    0.4222    6.2790 C.3       1 <0>        -0.0918
     12 C12         2.2228   -2.0030    6.6989 C.3       1 <0>        -0.0841
     13 C13         1.9003    0.1799    4.7810 C.3       1 <0>         0.0870
     14 C14        -5.1062   -2.9837    0.7664 C.3       1 <0>         0.2023
     15 C15         2.2690   -2.2605    5.1905 C.3       1 <0>         0.0778
     16 C16        -6.2232   -4.0248    0.8929 C.3       1 <0>        -0.0746
     17 C17         2.6202   -0.5689    7.0736 C.3       1 <0>        -0.0681
     18 C18        -7.0091   -4.1462   -0.4097 C.3       1 <0>        -0.0944
     19 C19         2.4647   -0.3375    8.5754 C.3       1 <0>        -0.0918
     20 C20         0.0249   -2.8727    0.7002 C.3       1 <0>        -0.1192
     21 C21         0.3004   -3.5693    2.0376 C.3       1 <0>        -0.0916
     22 C22         0.2602   -3.7963   -0.4886 C.3       1 <0>         0.1883
     23 C23        -0.0078   -2.6730    3.2260 C.3       1 <0>         0.1952
     24 N1         -4.3801   -2.8644    2.0167 N.pl3     1 <0>        -0.7670
     25 N2          1.5999   -1.2067    4.4091 N.am      1 <0>        -0.4509
     26 N3          3.3877   -5.6631   -1.4955 N.pl3     1 <0>        -0.8477
     27 N4          1.1890   -5.6621   -2.4548 N.pl3     1 <0>        -0.8633
     28 N5          1.6278   -4.2942   -0.5212 N.pl3     1 <0>        -0.7419
     29 N6         -1.3760   -2.1385    3.1042 N.pl3     1 <0>        -0.8860
     30 O1          4.6129   -2.8312    5.5328 O.2       1 <0>        -0.5199
     31 O2          0.8891   -0.7105    2.2483 O.2       1 <0>        -0.6131
     32 O3         -3.5166   -1.3454    4.2968 O.2       1 <0>        -0.6576
     33 O4         -1.7865   -2.6277    5.5955 O.2       1 <0>        -0.6482
     34 O5          3.9056   -2.1185    3.4864 O.3       1 <0>        -0.6303
     35 S1         -2.5018   -2.3799    4.3583 S.o2      1 <0>         1.5193
     36 H1         -3.3049   -7.1268    4.9571 H         1 <0>         0.1426
     37 H2         -4.8309   -7.3297    3.0242 H         1 <0>         0.1398
     38 H3         -2.2961   -4.9225    5.5159 H         1 <0>         0.1599
     39 H4         -5.0522   -5.8078    0.4610 H         1 <0>         0.0574
     40 H5         -6.4331   -6.0751    1.5397 H         1 <0>         0.0629
     41 H6          2.0669    1.4503    6.5123 H         1 <0>         0.0614
     42 H7          0.7128    0.3207    6.5714 H         1 <0>         0.0593
     43 H8          1.1978   -2.1858    7.0494 H         1 <0>         0.0841
     44 H9          2.8666   -2.7151    7.2306 H         1 <0>         0.0679
     45 H10         1.2456    0.8722    4.2416 H         1 <0>         0.0826
     46 H11         2.9258    0.3867    4.4518 H         1 <0>         0.0383
     47 H12        -4.4091   -3.2616   -0.0338 H         1 <0>         0.0556
     48 H13        -5.5272   -2.0065    0.5046 H         1 <0>         0.0415
     49 H14         1.7884   -3.2235    4.9909 H         1 <0>         0.0851
     50 H15        -6.9191   -3.7005    1.6784 H         1 <0>         0.0639
     51 H16         3.6763   -0.4106    6.8224 H         1 <0>         0.0584
     52 H17        -7.6317   -3.2604   -0.5670 H         1 <0>         0.0401
     53 H18        -6.3292   -4.2450   -1.2612 H         1 <0>         0.0440
     54 H19        -7.6604   -5.0250   -0.3851 H         1 <0>         0.0459
     55 H20         2.1532   -1.2591    9.0761 H         1 <0>         0.0456
     56 H21         3.4121   -0.0103    9.0142 H         1 <0>         0.0366
     57 H22         1.7112    0.4316    8.7697 H         1 <0>         0.0474
     58 H23        -1.0105   -2.5120    0.6824 H         1 <0>         0.0800
     59 H24         0.6776   -1.9980    0.5976 H         1 <0>         0.0681
     60 H25         1.3460   -3.9033    2.0652 H         1 <0>         0.0740
     61 H26        -0.3175   -4.4733    2.1109 H         1 <0>         0.0631
     62 H27         0.0590   -3.2831   -1.4342 H         1 <0>         0.0970
     63 H28        -0.4054   -4.6631   -0.4257 H         1 <0>         0.0725
     64 H29         0.1003   -3.1895    4.1787 H         1 <0>         0.0839
     65 H30        -3.8731   -2.0116    2.2195 H         1 <0>         0.4531
     66 H31         4.0702   -5.3548   -0.8082 H         1 <0>         0.4798
     67 H32         3.7046   -6.3246   -2.2006 H         1 <0>         0.4881
     68 H33         0.2221   -5.3473   -2.4765 H         1 <0>         0.4801
     69 H34         1.4849   -6.3248   -3.1675 H         1 <0>         0.4806
     70 H35         2.3012   -3.9765    0.1776 H         1 <0>         0.4689
     71 H36        -1.4850   -1.3266    2.4871 H         1 <0>         0.4505
     72 H37         4.8398   -2.2291    3.2082 H         1 <0>         0.4443
@<TRIPOS>BOND
     1    1    2 ar
     2    1    3 ar
     3    2    4 ar
     4    3    6 ar
     5    4    5 ar
     6    4   10 1
     7    5    6 ar
     8    5   24 1
     9    6   35 1
    10    7   15 1
    11    7   30 2
    12    7   34 1
    13    8   23 1
    14    8   25 am
    15    8   31 2
    16    9   26 1
    17    9   27 1
    18    9   28 1
    19   10   16 1
    20   11   13 1
    21   11   17 1
    22   12   15 1
    23   12   17 1
    24   13   25 1
    25   14   16 1
    26   14   24 1
    27   15   25 1
    28   16   18 1
    29   17   19 1
    30   20   21 1
    31   20   22 1
    32   21   23 1
    33   22   28 1
    34   23   29 1
    35   29   35 1
    36   32   35 2
    37   33   35 2
    38    1   36 1
    39    2   37 1
    40    3   38 1
    41   10   39 1
    42   10   40 1
    43   11   41 1
    44   11   42 1
    45   12   43 1
    46   12   44 1
    47   13   45 1
    48   13   46 1
    49   14   47 1
    50   14   48 1
    51   15   49 1
    52   16   50 1
    53   17   51 1
    54   18   52 1
    55   18   53 1
    56   18   54 1
    57   19   55 1
    58   19   56 1
    59   19   57 1
    60   20   58 1
    61   20   59 1
    62   21   60 1
    63   21   61 1
    64   22   62 1
    65   22   63 1
    66   23   64 1
    67   24   65 1
    68   26   66 1
    69   26   67 1
    70   27   68 1
    71   27   69 1
    72   28   70 1
    73   29   71 1
    74   34   72 1
@<TRIPOS>MOLECULE
1dwc_ligand_338
   72    74     0     0     0
SMALL
USER_CHARGES

mmff94s_NoEstat = 82.23
@<TRIPOS>ATOM
      1 C1          1.6845   -5.9778    0.1844 C.ar      1 <0>        -0.1945
      2 C2          0.6520   -5.4496    0.9566 C.ar      1 <0>        -0.0294
      3 C3          1.9606   -5.4374   -1.0681 C.ar      1 <0>        -0.0143
      4 C4         -0.1093   -4.3725    0.4806 C.ar      1 <0>        -0.1552
      5 C5          0.1450   -3.8386   -0.7984 C.ar      1 <0>         0.3076
      6 C6          1.1982   -4.3739   -1.5539 C.ar      1 <0>        -0.4908
      7 C7          2.4038   -0.4910    2.4030 C.2       1 <0>         0.5994
      8 C8          2.9466   -1.3973   -0.6457 C.2       1 <0>         0.6462
      9 C9          9.0792    0.7389   -1.8541 C.cat     1 <0>         0.6305
     10 C10        -1.2292   -3.8175    1.3278 C.3       1 <0>        -0.0319
     11 C11         3.9178   -3.4419    2.3602 C.3       1 <0>        -0.0918
     12 C12         4.8012   -1.0545    2.5913 C.3       1 <0>        -0.0841
     13 C13         4.0430   -3.0960    0.8803 C.3       1 <0>         0.0870
     14 C14        -1.7931   -2.3309   -0.6108 C.3       1 <0>         0.2023
     15 C15         3.6790   -0.7248    1.6100 C.3       1 <0>         0.0778
     16 C16        -1.5940   -2.3850    0.9075 C.3       1 <0>        -0.0746
     17 C17         4.6242   -2.4243    3.2705 C.3       1 <0>        -0.0681
     18 C18        -2.8431   -1.9049    1.6414 C.3       1 <0>        -0.0944
     19 C19         5.9763   -2.9527    3.7531 C.3       1 <0>        -0.0918
     20 C20         5.7415   -1.0578   -1.6401 C.3       1 <0>        -0.1192
     21 C21         4.5564   -1.3488   -2.5679 C.3       1 <0>        -0.0916
     22 C22         6.8115   -0.2136   -2.3213 C.3       1 <0>         0.1883
     23 C23         3.4544   -2.1251   -1.8653 C.3       1 <0>         0.1952
     24 N1         -0.5924   -2.7711   -1.2958 N.pl3     1 <0>        -0.7670
     25 N2          3.5192   -1.7560    0.5781 N.am      1 <0>        -0.4509
     26 N3         10.1464    0.9650   -0.9911 N.pl3     1 <0>        -0.8477
     27 N4          9.1456    1.2237   -3.1558 N.pl3     1 <0>        -0.8633
     28 N5          7.9432    0.0352   -1.4399 N.pl3     1 <0>        -0.7419
     29 N6          2.2741   -2.2179   -2.7432 N.pl3     1 <0>        -0.8860
     30 O1          2.3585   -0.1007    3.5602 O.2       1 <0>        -0.5199
     31 O2          2.0685   -0.5400   -0.7710 O.2       1 <0>        -0.6131
     32 O3          2.6686   -4.5798   -3.6918 O.2       1 <0>        -0.6576
     33 O4          0.3811   -3.5494   -3.8650 O.2       1 <0>        -0.6482
     34 O5          1.3131   -0.7776    1.6510 O.3       1 <0>        -0.6303
     35 S1          1.6226   -3.7401   -3.1398 S.o2      1 <0>         1.5193
     36 H1          2.2754   -6.8081    0.5612 H         1 <0>         0.1426
     37 H2          0.4453   -5.8762    1.9353 H         1 <0>         0.1398
     38 H3          2.7663   -5.8367   -1.6758 H         1 <0>         0.1599
     39 H4         -2.0994   -4.4781    1.2245 H         1 <0>         0.0574
     40 H5         -0.9335   -3.8165    2.3842 H         1 <0>         0.0629
     41 H6          2.8510   -3.4591    2.6203 H         1 <0>         0.0614
     42 H7          4.2939   -4.4553    2.5428 H         1 <0>         0.0593
     43 H8          5.7524   -1.0436    2.0413 H         1 <0>         0.0841
     44 H9          4.8832   -0.2779    3.3625 H         1 <0>         0.0679
     45 H10         5.0934   -3.1114    0.5668 H         1 <0>         0.0826
     46 H11         3.5122   -3.8428    0.2819 H         1 <0>         0.0383
     47 H12        -2.6365   -2.9647   -0.9116 H         1 <0>         0.0556
     48 H13        -2.0279   -1.3080   -0.9257 H         1 <0>         0.0415
     49 H14         3.9015    0.2290    1.1168 H         1 <0>         0.0851
     50 H15        -0.7654   -1.7164    1.1777 H         1 <0>         0.0639
     51 H16         4.0032   -2.2947    4.1661 H         1 <0>         0.0584
     52 H17        -2.9604   -0.8225    1.5328 H         1 <0>         0.0401
     53 H18        -3.7366   -2.3905    1.2379 H         1 <0>         0.0440
     54 H19        -2.7758   -2.1387    2.7081 H         1 <0>         0.0459
     55 H20         5.8782   -3.4157    4.7396 H         1 <0>         0.0456
     56 H21         6.3665   -3.7022    3.0580 H         1 <0>         0.0366
     57 H22         6.7034   -2.1384    3.8257 H         1 <0>         0.0474
     58 H23         5.3842   -0.5386   -0.7426 H         1 <0>         0.0800
     59 H24         6.1956   -2.0004   -1.3135 H         1 <0>         0.0681
     60 H25         4.9119   -1.8947   -3.4517 H         1 <0>         0.0740
     61 H26         4.1396   -0.4017   -2.9334 H         1 <0>         0.0631
     62 H27         6.4083    0.7518   -2.6432 H         1 <0>         0.0970
     63 H28         7.1906   -0.7341   -3.2066 H         1 <0>         0.0725
     64 H29         3.7703   -3.1244   -1.5692 H         1 <0>         0.0839
     65 H30        -0.4235   -2.4715   -2.2481 H         1 <0>         0.4531
     66 H31        10.1413    0.6313   -0.0309 H         1 <0>         0.4798
     67 H32        10.9686    1.4783   -1.3002 H         1 <0>         0.4881
     68 H33         8.3832    1.0763   -3.8128 H         1 <0>         0.4801
     69 H34         9.9591    1.7377   -3.4855 H         1 <0>         0.4806
     70 H35         7.9238   -0.3084   -0.4785 H         1 <0>         0.4689
     71 H36         1.6613   -1.3957   -2.7560 H         1 <0>         0.4505
     72 H37         0.4786   -0.6346    2.1465 H         1 <0>         0.4443
@<TRIPOS>BOND
     1    1    2 ar
     2    1    3 ar
     3    2    4 ar
     4    3    6 ar
     5    4    5 ar
     6    4   10 1
     7    5    6 ar
     8    5   24 1
     9    6   35 1
    10    7   15 1
    11    7   30 2
    12    7   34 1
    13    8   23 1
    14    8   25 am
    15    8   31 2
    16    9   26 1
    17    9   27 1
    18    9   28 1
    19   10   16 1
    20   11   13 1
    21   11   17 1
    22   12   15 1
    23   12   17 1
    24   13   25 1
    25   14   16 1
    26   14   24 1
    27   15   25 1
    28   16   18 1
    29   17   19 1
    30   20   21 1
    31   20   22 1
    32   21   23 1
    33   22   28 1
    34   23   29 1
    35   29   35 1
    36   32   35 2
    37   33   35 2
    38    1   36 1
    39    2   37 1
    40    3   38 1
    41   10   39 1
    42   10   40 1
    43   11   41 1
    44   11   42 1
    45   12   43 1
    46   12   44 1
    47   13   45 1
    48   13   46 1
    49   14   47 1
    50   14   48 1
    51   15   49 1
    52   16   50 1
    53   17   51 1
    54   18   52 1
    55   18   53 1
    56   18   54 1
    57   19   55 1
    58   19   56 1
    59   19   57 1
    60   20   58 1
    61   20   59 1
    62   21   60 1
    63   21   61 1
    64   22   62 1
    65   22   63 1
    66   23   64 1
    67   24   65 1
    68   26   66 1
    69   26   67 1
    70   27   68 1
    71   27   69 1
    72   28   70 1
    73   29   71 1
    74   34   72 1
@<TRIPOS>MOLECULE
1dwc_ligand_339
   72    74     0     0     0
SMALL
USER_CHARGES

mmff94s_NoEstat = 82.24
@<TRIPOS>ATOM
      1 C1         -2.1298   -7.0550    2.6197 C.ar      1 <0>        -0.1945
      2 C2         -2.1776   -7.9063    3.7216 C.ar      1 <0>        -0.0294
      3 C3         -1.0466   -6.1974    2.4524 C.ar      1 <0>        -0.0143
      4 C4         -1.1415   -7.9019    4.6667 C.ar      1 <0>        -0.1552
      5 C5         -0.0281   -7.0574    4.4895 C.ar      1 <0>         0.3076
      6 C6         -0.0057   -6.1967    3.3824 C.ar      1 <0>        -0.4908
      7 C7         -1.1116    1.0220    1.9825 C.2       1 <0>         0.5994
      8 C8          0.8654   -1.4427    3.2413 C.2       1 <0>         0.6462
      9 C9         -5.6874   -4.6342    5.1589 C.cat     1 <0>         0.6305
     10 C10        -1.2075   -8.8376    5.8498 C.3       1 <0>        -0.0319
     11 C11         2.1388    0.2326    0.2266 C.3       1 <0>        -0.0918
     12 C12        -0.3237   -0.1114   -0.0639 C.3       1 <0>        -0.0841
     13 C13         1.9602    0.1751    1.7384 C.3       1 <0>         0.0870
     14 C14         1.0959   -8.0346    6.4521 C.3       1 <0>         0.2023
     15 C15        -0.4871   -0.2577    1.4512 C.3       1 <0>         0.0778
     16 C16        -0.2880   -8.3979    7.0008 C.3       1 <0>        -0.0746
     17 C17         0.8749    0.7635   -0.4549 C.3       1 <0>        -0.0681
     18 C18        -0.8989   -7.2514    7.8146 C.3       1 <0>        -0.0944
     19 C19         1.0498    0.7979   -1.9719 C.3       1 <0>        -0.0918
     20 C20        -2.2331   -3.6727    3.9110 C.3       1 <0>        -0.1192
     21 C21        -1.3133   -2.4479    3.9716 C.3       1 <0>        -0.0916
     22 C22        -3.5726   -3.4201    4.5920 C.3       1 <0>         0.1883
     23 C23        -0.0078   -2.6730    3.2260 C.3       1 <0>         0.1952
     24 N1          1.0093   -7.0259    5.4129 N.pl3     1 <0>        -0.7670
     25 N2          0.7744   -0.5925    2.1333 N.am      1 <0>        -0.4509
     26 N3         -6.4864   -5.7715    5.1030 N.pl3     1 <0>        -0.8477
     27 N4         -6.1529   -3.5113    5.8344 N.pl3     1 <0>        -0.8633
     28 N5         -4.4280   -4.5974    4.5508 N.pl3     1 <0>        -0.7419
     29 N6          0.7961   -3.6905    3.9267 N.pl3     1 <0>        -0.8860
     30 O1         -0.4892    1.9717    2.4341 O.2       1 <0>        -0.5199
     31 O2          1.6103   -1.2468    4.2054 O.2       1 <0>        -0.6131
     32 O3          2.5030   -5.6116    3.7560 O.2       1 <0>        -0.6576
     33 O4          1.3467   -4.8031    1.6743 O.2       1 <0>        -0.6482
     34 O5         -2.4629    0.9691    1.8908 O.3       1 <0>        -0.6303
     35 S1          1.3247   -5.0804    3.0977 S.o2      1 <0>         1.5193
     36 H1         -2.9384   -7.0582    1.8938 H         1 <0>         0.1426
     37 H2         -3.0292   -8.5710    3.8458 H         1 <0>         0.1398
     38 H3         -1.0014   -5.5255    1.6011 H         1 <0>         0.1599
     39 H4         -2.2393   -8.9161    6.2138 H         1 <0>         0.0574
     40 H5         -0.9020   -9.8336    5.5046 H         1 <0>         0.0629
     41 H6          2.9950    0.8726   -0.0171 H         1 <0>         0.0614
     42 H7          2.3692   -0.7717   -0.1514 H         1 <0>         0.0593
     43 H8         -0.1827   -1.1122   -0.4945 H         1 <0>         0.0841
     44 H9         -1.2391    0.2955   -0.5121 H         1 <0>         0.0679
     45 H10         2.8610   -0.2490    2.1940 H         1 <0>         0.0826
     46 H11         1.8403    1.1858    2.1470 H         1 <0>         0.0383
     47 H12         1.7419   -7.6685    7.2578 H         1 <0>         0.0556
     48 H13         1.5757   -8.9299    6.0380 H         1 <0>         0.0415
     49 H14        -1.2253   -1.0427    1.6435 H         1 <0>         0.0851
     50 H15        -0.1776   -9.2426    7.6919 H         1 <0>         0.0639
     51 H16         0.6944    1.7923   -0.1196 H         1 <0>         0.0584
     52 H17        -1.8108   -6.8831    7.3352 H         1 <0>         0.0401
     53 H18        -1.1526   -7.5890    8.8240 H         1 <0>         0.0440
     54 H19        -0.1929   -6.4196    7.8967 H         1 <0>         0.0459
     55 H20         0.1097    0.5485   -2.4730 H         1 <0>         0.0456
     56 H21         1.3618    1.7937   -2.3005 H         1 <0>         0.0366
     57 H22         1.8100    0.0770   -2.2875 H         1 <0>         0.0474
     58 H23        -2.4032   -3.9506    2.8639 H         1 <0>         0.0800
     59 H24        -1.7473   -4.5245    4.4007 H         1 <0>         0.0681
     60 H25        -1.1204   -2.1894    5.0211 H         1 <0>         0.0740
     61 H26        -1.8263   -1.5854    3.5275 H         1 <0>         0.0631
     62 H27        -4.1071   -2.5906    4.1183 H         1 <0>         0.0970
     63 H28        -3.4143   -3.1637    5.6444 H         1 <0>         0.0725
     64 H29        -0.1638   -2.9774    2.1921 H         1 <0>         0.0839
     65 H30         1.8214   -6.4586    5.2027 H         1 <0>         0.4531
     66 H31        -6.1885   -6.6144    4.6191 H         1 <0>         0.4798
     67 H32        -7.4014   -5.7896    5.5474 H         1 <0>         0.4881
     68 H33        -5.5947   -2.6632    5.8946 H         1 <0>         0.4801
     69 H34        -7.0638   -3.5091    6.2870 H         1 <0>         0.4806
     70 H35        -4.1136   -5.4373    4.0624 H         1 <0>         0.4689
     71 H36         1.3354   -3.3564    4.7325 H         1 <0>         0.4505
     72 H37        -2.8855    1.7865    2.2310 H         1 <0>         0.4443
@<TRIPOS>BOND
     1    1    2 ar
     2    1    3 ar
     3    2    4 ar
     4    3    6 ar
     5    4    5 ar
     6    4   10 1
     7    5    6 ar
     8    5   24 1
     9    6   35 1
    10    7   15 1
    11    7   30 2
    12    7   34 1
    13    8   23 1
    14    8   25 am
    15    8   31 2
    16    9   26 1
    17    9   27 1
    18    9   28 1
    19   10   16 1
    20   11   13 1
    21   11   17 1
    22   12   15 1
    23   12   17 1
    24   13   25 1
    25   14   16 1
    26   14   24 1
    27   15   25 1
    28   16   18 1
    29   17   19 1
    30   20   21 1
    31   20   22 1
    32   21   23 1
    33   22   28 1
    34   23   29 1
    35   29   35 1
    36   32   35 2
    37   33   35 2
    38    1   36 1
    39    2   37 1
    40    3   38 1
    41   10   39 1
    42   10   40 1
    43   11   41 1
    44   11   42 1
    45   12   43 1
    46   12   44 1
    47   13   45 1
    48   13   46 1
    49   14   47 1
    50   14   48 1
    51   15   49 1
    52   16   50 1
    53   17   51 1
    54   18   52 1
    55   18   53 1
    56   18   54 1
    57   19   55 1
    58   19   56 1
    59   19   57 1
    60   20   58 1
    61   20   59 1
    62   21   60 1
    63   21   61 1
    64   22   62 1
    65   22   63 1
    66   23   64 1
    67   24   65 1
    68   26   66 1
    69   26   67 1
    70   27   68 1
    71   27   69 1
    72   28   70 1
    73   29   71 1
    74   34   72 1
@<TRIPOS>MOLECULE
1dwc_ligand_340
   72    74     0     0     0
SMALL
USER_CHARGES

mmff94s_NoEstat = 82.25
@<TRIPOS>ATOM
      1 C1         -1.2513   -4.6123    7.0409 C.ar      1 <0>        -0.1945
      2 C2         -2.2943   -5.5269    6.9103 C.ar      1 <0>        -0.0294
      3 C3         -1.2571   -3.4413    6.2888 C.ar      1 <0>        -0.0143
      4 C4         -3.3535   -5.2725    6.0273 C.ar      1 <0>        -0.1552
      5 C5         -3.3523   -4.1031    5.2411 C.ar      1 <0>         0.3076
      6 C6         -2.3015   -3.1877    5.3982 C.ar      1 <0>        -0.4908
      7 C7          4.0428   -2.6510    3.1279 C.2       1 <0>         0.5994
      8 C8          0.8654   -1.4427    3.2413 C.2       1 <0>         0.6462
      9 C9         -0.6326   -5.9229   -1.4626 C.cat     1 <0>         0.6305
     10 C10        -4.4718   -6.2782    5.8932 C.3       1 <0>        -0.0319
     11 C11         3.0349   -0.4758    6.0475 C.3       1 <0>        -0.0918
     12 C12         3.4817   -2.8819    5.5206 C.3       1 <0>        -0.0841
     13 C13         2.5314   -0.2662    4.6251 C.3       1 <0>         0.0870
     14 C14        -5.3794   -4.8387    4.0520 C.3       1 <0>         0.2023
     15 C15         2.8926   -2.6899    4.1206 C.3       1 <0>         0.0778
     16 C16        -5.7397   -5.6335    5.3114 C.3       1 <0>        -0.0746
     17 C17         4.0802   -1.5931    6.1000 C.3       1 <0>        -0.0681
     18 C18        -6.7970   -6.6915    5.0078 C.3       1 <0>        -0.0944
     19 C19         4.5654   -1.8157    7.5311 C.3       1 <0>        -0.0918
     20 C20         0.0249   -2.8727    0.7002 C.3       1 <0>        -0.1192
     21 C21         0.3004   -3.5693    2.0376 C.3       1 <0>        -0.0916
     22 C22         0.2602   -3.7963   -0.4886 C.3       1 <0>         0.1883
     23 C23        -0.0078   -2.6730    3.2260 C.3       1 <0>         0.1952
     24 N1         -4.3886   -3.8243    4.3586 N.pl3     1 <0>        -0.7670
     25 N2          2.0252   -1.5038    4.0223 N.am      1 <0>        -0.4509
     26 N3         -1.4804   -7.0239   -1.4014 N.pl3     1 <0>        -0.8477
     27 N4          0.2178   -5.7819   -2.5539 N.pl3     1 <0>        -0.8633
     28 N5         -0.6182   -4.9567   -0.4508 N.pl3     1 <0>        -0.7419
     29 N6         -1.3760   -2.1385    3.1042 N.pl3     1 <0>        -0.8860
     30 O1          4.5855   -1.6340    2.7222 O.2       1 <0>        -0.5199
     31 O2          0.5240   -0.4555    2.5844 O.2       1 <0>        -0.6131
     32 O3         -3.5960   -1.3232    4.1243 O.2       1 <0>        -0.6576
     33 O4         -1.4314   -0.7555    5.2719 O.2       1 <0>        -0.6482
     34 O5          4.3885   -3.9048    2.7464 O.3       1 <0>        -0.6303
     35 S1         -2.2397   -1.6774    4.4970 S.o2      1 <0>         1.5193
     36 H1         -0.4366   -4.8116    7.7316 H         1 <0>         0.1426
     37 H2         -2.2830   -6.4379    7.5040 H         1 <0>         0.1398
     38 H3         -0.4531   -2.7188    6.3867 H         1 <0>         0.1599
     39 H4         -4.1265   -7.0929    5.2439 H         1 <0>         0.0574
     40 H5         -4.7068   -6.7090    6.8742 H         1 <0>         0.0629
     41 H6          3.4643    0.4595    6.4257 H         1 <0>         0.0614
     42 H7          2.1893   -0.7290    6.6997 H         1 <0>         0.0593
     43 H8          2.6805   -3.2276    6.1882 H         1 <0>         0.0841
     44 H9          4.2439   -3.6714    5.5123 H         1 <0>         0.0679
     45 H10         1.7550    0.5058    4.6255 H         1 <0>         0.0826
     46 H11         3.3431    0.0962    3.9827 H         1 <0>         0.0383
     47 H12        -4.9880   -5.5059    3.2740 H         1 <0>         0.0556
     48 H13        -6.2720   -4.3523    3.6429 H         1 <0>         0.0415
     49 H14         2.3173   -3.5850    3.8636 H         1 <0>         0.0851
     50 H15        -6.1574   -4.9424    6.0561 H         1 <0>         0.0639
     51 H16         4.9487   -1.2974    5.4988 H         1 <0>         0.0584
     52 H17        -7.7694   -6.2229    4.8294 H         1 <0>         0.0401
     53 H18        -6.5224   -7.2651    4.1175 H         1 <0>         0.0440
     54 H19        -6.8980   -7.3858    5.8473 H         1 <0>         0.0459
     55 H20         4.4326   -2.8615    7.8238 H         1 <0>         0.0456
     56 H21         5.6267   -1.5650    7.6207 H         1 <0>         0.0366
     57 H22         4.0032   -1.1886    8.2295 H         1 <0>         0.0474
     58 H23        -1.0105   -2.5120    0.6824 H         1 <0>         0.0800
     59 H24         0.6776   -1.9980    0.5976 H         1 <0>         0.0681
     60 H25         1.3460   -3.9033    2.0652 H         1 <0>         0.0740
     61 H26        -0.3175   -4.4733    2.1109 H         1 <0>         0.0631
     62 H27         1.2957   -4.1503   -0.5157 H         1 <0>         0.0970
     63 H28         0.0608   -3.2615   -1.4226 H         1 <0>         0.0725
     64 H29         0.1003   -3.1895    4.1787 H         1 <0>         0.0839
     65 H30        -4.3065   -3.0109    3.7612 H         1 <0>         0.4531
     66 H31        -2.1173   -7.1693   -0.6226 H         1 <0>         0.4798
     67 H32        -1.4841   -7.7223   -2.1412 H         1 <0>         0.4881
     68 H33         0.8505   -4.9892   -2.6303 H         1 <0>         0.4801
     69 H34         0.2286   -6.4677   -3.3050 H         1 <0>         0.4806
     70 H35        -1.2539   -5.0876    0.3375 H         1 <0>         0.4689
     71 H36        -1.6042   -1.6955    2.2078 H         1 <0>         0.4505
     72 H37         5.1292   -3.9010    2.1032 H         1 <0>         0.4443
@<TRIPOS>BOND
     1    1    2 ar
     2    1    3 ar
     3    2    4 ar
     4    3    6 ar
     5    4    5 ar
     6    4   10 1
     7    5    6 ar
     8    5   24 1
     9    6   35 1
    10    7   15 1
    11    7   30 2
    12    7   34 1
    13    8   23 1
    14    8   25 am
    15    8   31 2
    16    9   26 1
    17    9   27 1
    18    9   28 1
    19   10   16 1
    20   11   13 1
    21   11   17 1
    22   12   15 1
    23   12   17 1
    24   13   25 1
    25   14   16 1
    26   14   24 1
    27   15   25 1
    28   16   18 1
    29   17   19 1
    30   20   21 1
    31   20   22 1
    32   21   23 1
    33   22   28 1
    34   23   29 1
    35   29   35 1
    36   32   35 2
    37   33   35 2
    38    1   36 1
    39    2   37 1
    40    3   38 1
    41   10   39 1
    42   10   40 1
    43   11   41 1
    44   11   42 1
    45   12   43 1
    46   12   44 1
    47   13   45 1
    48   13   46 1
    49   14   47 1
    50   14   48 1
    51   15   49 1
    52   16   50 1
    53   17   51 1
    54   18   52 1
    55   18   53 1
    56   18   54 1
    57   19   55 1
    58   19   56 1
    59   19   57 1
    60   20   58 1
    61   20   59 1
    62   21   60 1
    63   21   61 1
    64   22   62 1
    65   22   63 1
    66   23   64 1
    67   24   65 1
    68   26   66 1
    69   26   67 1
    70   27   68 1
    71   27   69 1
    72   28   70 1
    73   29   71 1
    74   34   72 1
@<TRIPOS>MOLECULE
1dwc_ligand_341
   72    74     0     0     0
SMALL
USER_CHARGES

mmff94s_NoEstat = 82.31
@<TRIPOS>ATOM
      1 C1          2.9804   -6.8364   -3.8826 C.ar      1 <0>        -0.1945
      2 C2          2.9418   -6.7056   -5.2692 C.ar      1 <0>        -0.0294
      3 C3          2.4346   -5.8419   -3.0764 C.ar      1 <0>        -0.0143
      4 C4          2.3519   -5.5783   -5.8586 C.ar      1 <0>        -0.1552
      5 C5          1.8230   -4.5534   -5.0490 C.ar      1 <0>         0.3076
      6 C6          1.8576   -4.7107   -3.6559 C.ar      1 <0>        -0.4908
      7 C7          2.7064   -0.1192    2.3072 C.2       1 <0>         0.5994
      8 C8          2.9466   -1.3973   -0.6457 C.2       1 <0>         0.6462
      9 C9          4.1200    2.2277   -5.6019 C.cat     1 <0>         0.6305
     10 C10         2.3255   -5.4497   -7.3628 C.3       1 <0>        -0.0319
     11 C11         5.2891   -2.1972    2.1884 C.3       1 <0>        -0.0918
     12 C12         5.0977    0.3338    1.8863 C.3       1 <0>        -0.0841
     13 C13         4.9490   -2.1654    0.7022 C.3       1 <0>         0.0870
     14 C14         1.3521   -3.1637   -7.0268 C.3       1 <0>         0.2023
     15 C15         3.7674   -0.0162    1.2240 C.3       1 <0>         0.0778
     16 C16         1.2367   -4.4677   -7.8231 C.3       1 <0>        -0.0746
     17 C17         5.6645   -0.8131    2.7422 C.3       1 <0>        -0.0681
     18 C18         1.3410   -4.2047   -9.3229 C.3       1 <0>        -0.0944
     19 C19         7.1799   -0.6635    2.8882 C.3       1 <0>        -0.0918
     20 C20         4.0666    0.0061   -3.0917 C.3       1 <0>        -0.1192
     21 C21         4.5564   -1.3488   -2.5679 C.3       1 <0>        -0.0916
     22 C22         5.1498    0.7503   -3.8628 C.3       1 <0>         0.1883
     23 C23         3.4544   -2.1251   -1.8653 C.3       1 <0>         0.1952
     24 N1          1.2318   -3.4255   -5.6050 N.pl3     1 <0>        -0.7670
     25 N2          3.8547   -1.2301    0.4039 N.am      1 <0>        -0.4509
     26 N3          3.6785    3.4764   -6.0269 N.pl3     1 <0>        -0.8477
     27 N4          3.9991    1.1384   -6.4580 N.pl3     1 <0>        -0.8633
     28 N5          4.6819    2.0459   -4.3336 N.pl3     1 <0>        -0.7419
     29 N6          2.2741   -2.2179   -2.7432 N.pl3     1 <0>        -0.8860
     30 O1          2.4216    0.7685    3.0973 O.2       1 <0>        -0.5199
     31 O2          1.7818   -0.9917   -0.6208 O.2       1 <0>        -0.6131
     32 O3         -0.1165   -3.1121   -3.0880 O.2       1 <0>        -0.6576
     33 O4          1.2896   -4.0436   -1.2226 O.2       1 <0>        -0.6482
     34 O5          2.1141   -1.3382    2.2827 O.3       1 <0>        -0.6303
     35 S1          1.1775   -3.5081   -2.5659 S.o2      1 <0>         1.5193
     36 H1          3.4328   -7.7153   -3.4316 H         1 <0>         0.1426
     37 H2          3.3680   -7.4891   -5.8914 H         1 <0>         0.1398
     38 H3          2.4534   -5.9358   -1.9953 H         1 <0>         0.1599
     39 H4          3.3132   -5.1073   -7.6968 H         1 <0>         0.0574
     40 H5          2.1395   -6.4300   -7.8186 H         1 <0>         0.0629
     41 H6          4.4096   -2.5633    2.7347 H         1 <0>         0.0614
     42 H7          6.0897   -2.9223    2.3757 H         1 <0>         0.0593
     43 H8          5.8186    0.5861    1.0964 H         1 <0>         0.0841
     44 H9          4.9971    1.2321    2.5089 H         1 <0>         0.0679
     45 H10         5.8170   -1.8466    0.1132 H         1 <0>         0.0826
     46 H11         4.6769   -3.1705    0.3656 H         1 <0>         0.0383
     47 H12         2.3133   -2.6740   -7.2264 H         1 <0>         0.0556
     48 H13         0.5637   -2.4650   -7.3281 H         1 <0>         0.0415
     49 H14         3.4560    0.8159    0.5811 H         1 <0>         0.0851
     50 H15         0.2527   -4.9144   -7.6261 H         1 <0>         0.0639
     51 H16         5.2454   -0.7368    3.7536 H         1 <0>         0.0584
     52 H17         0.4364   -3.7110   -9.6904 H         1 <0>         0.0401
     53 H18         2.1981   -3.5608   -9.5417 H         1 <0>         0.0440
     54 H19         1.4672   -5.1439   -9.8699 H         1 <0>         0.0459
     55 H20         7.4927   -0.8988    3.9099 H         1 <0>         0.0456
     56 H21         7.7008   -1.3400    2.2040 H         1 <0>         0.0366
     57 H22         7.4886    0.3613    2.6609 H         1 <0>         0.0474
     58 H23         3.1961   -0.1462   -3.7411 H         1 <0>         0.0800
     59 H24         3.7428    0.6319   -2.2522 H         1 <0>         0.0681
     60 H25         5.4094   -1.1917   -1.8946 H         1 <0>         0.0740
     61 H26         4.9285   -1.9502   -3.4070 H         1 <0>         0.0631
     62 H27         5.4874    0.1718   -4.7286 H         1 <0>         0.0970
     63 H28         6.0148    0.9268   -3.2156 H         1 <0>         0.0725
     64 H29         3.7703   -3.1244   -1.5692 H         1 <0>         0.0839
     65 H30         0.9344   -2.6826   -4.9846 H         1 <0>         0.4531
     66 H31         3.7448    4.3001   -5.4349 H         1 <0>         0.4798
     67 H32         3.2704    3.5997   -6.9507 H         1 <0>         0.4881
     68 H33         4.3116    0.2115   -6.1792 H         1 <0>         0.4801
     69 H34         3.5958    1.2405   -7.3862 H         1 <0>         0.4806
     70 H35         4.7573    2.8644   -3.7278 H         1 <0>         0.4689
     71 H36         1.9407   -1.3323   -3.1385 H         1 <0>         0.4505
     72 H37         1.4264   -1.4253    2.9768 H         1 <0>         0.4443
@<TRIPOS>BOND
     1    1    2 ar
     2    1    3 ar
     3    2    4 ar
     4    3    6 ar
     5    4    5 ar
     6    4   10 1
     7    5    6 ar
     8    5   24 1
     9    6   35 1
    10    7   15 1
    11    7   30 2
    12    7   34 1
    13    8   23 1
    14    8   25 am
    15    8   31 2
    16    9   26 1
    17    9   27 1
    18    9   28 1
    19   10   16 1
    20   11   13 1
    21   11   17 1
    22   12   15 1
    23   12   17 1
    24   13   25 1
    25   14   16 1
    26   14   24 1
    27   15   25 1
    28   16   18 1
    29   17   19 1
    30   20   21 1
    31   20   22 1
    32   21   23 1
    33   22   28 1
    34   23   29 1
    35   29   35 1
    36   32   35 2
    37   33   35 2
    38    1   36 1
    39    2   37 1
    40    3   38 1
    41   10   39 1
    42   10   40 1
    43   11   41 1
    44   11   42 1
    45   12   43 1
    46   12   44 1
    47   13   45 1
    48   13   46 1
    49   14   47 1
    50   14   48 1
    51   15   49 1
    52   16   50 1
    53   17   51 1
    54   18   52 1
    55   18   53 1
    56   18   54 1
    57   19   55 1
    58   19   56 1
    59   19   57 1
    60   20   58 1
    61   20   59 1
    62   21   60 1
    63   21   61 1
    64   22   62 1
    65   22   63 1
    66   23   64 1
    67   24   65 1
    68   26   66 1
    69   26   67 1
    70   27   68 1
    71   27   69 1
    72   28   70 1
    73   29   71 1
    74   34   72 1
@<TRIPOS>MOLECULE
1dwc_ligand_342
   72    74     0     0     0
SMALL
USER_CHARGES

mmff94s_NoEstat = 82.37
@<TRIPOS>ATOM
      1 C1         -3.2095   -6.3111    4.0319 C.ar      1 <0>        -0.1945
      2 C2         -4.3494   -6.3756    3.2333 C.ar      1 <0>        -0.0294
      3 C3         -2.6618   -5.0747    4.3608 C.ar      1 <0>        -0.0143
      4 C4         -4.9515   -5.2005    2.7615 C.ar      1 <0>        -0.1552
      5 C5         -4.3866   -3.9460    3.0659 C.ar      1 <0>         0.3076
      6 C6         -3.2482   -3.9013    3.8837 C.ar      1 <0>        -0.4908
      7 C7          3.6572    0.2351    4.2205 C.2       1 <0>         0.5994
      8 C8          0.8654   -1.4427    3.2413 C.2       1 <0>         0.6462
      9 C9         -0.8941   -7.9715   -0.0876 C.cat     1 <0>         0.6305
     10 C10        -6.1822   -5.2895    1.8910 C.3       1 <0>        -0.0319
     11 C11         3.8985   -3.4862    3.6166 C.3       1 <0>        -0.0918
     12 C12         4.5525   -1.3270    2.5319 C.3       1 <0>        -0.0841
     13 C13         2.6738   -2.8056    4.2145 C.3       1 <0>         0.0870
     14 C14        -6.0218   -2.8018    1.6233 C.3       1 <0>         0.2023
     15 C15         3.2751   -0.6689    3.0601 C.3       1 <0>         0.0778
     16 C16        -6.9723   -3.9714    1.8997 C.3       1 <0>        -0.0746
     17 C17         5.0385   -2.4845    3.4144 C.3       1 <0>        -0.0681
     18 C18        -8.1050   -4.0102    0.8775 C.3       1 <0>        -0.0944
     19 C19         6.2563   -3.1661    2.7936 C.3       1 <0>        -0.0918
     20 C20        -0.5404   -4.8511    2.0458 C.3       1 <0>        -0.1192
     21 C21         0.3004   -3.5693    2.0376 C.3       1 <0>        -0.0916
     22 C22        -0.1768   -5.7847    0.8978 C.3       1 <0>         0.1883
     23 C23        -0.0078   -2.6730    3.2260 C.3       1 <0>         0.1952
     24 N1         -4.9617   -2.7650    2.6130 N.pl3     1 <0>        -0.7670
     25 N2          2.2374   -1.6470    3.4280 N.am      1 <0>        -0.4509
     26 N3         -1.6898   -9.1122   -0.0609 N.pl3     1 <0>        -0.8477
     27 N4          0.0239   -7.8094   -1.1196 N.pl3     1 <0>        -0.8633
     28 N5         -0.9984   -6.9865    0.9003 N.pl3     1 <0>        -0.7419
     29 N6         -1.3760   -2.1385    3.1042 N.pl3     1 <0>        -0.8860
     30 O1          3.6315   -0.0869    5.3991 O.2       1 <0>        -0.5199
     31 O2          0.3435   -0.3338    3.0981 O.2       1 <0>        -0.6131
     32 O3         -3.5166   -1.3454    4.2968 O.2       1 <0>        -0.6576
     33 O4         -1.7865   -2.6277    5.5955 O.2       1 <0>        -0.6482
     34 O5          4.0314    1.4581    3.7715 O.3       1 <0>        -0.6303
     35 S1         -2.5018   -2.3799    4.3583 S.o2      1 <0>         1.5193
     36 H1         -2.7511   -7.2247    4.4003 H         1 <0>         0.1426
     37 H2         -4.7722   -7.3459    2.9838 H         1 <0>         0.1398
     38 H3         -1.7777   -5.0119    4.9872 H         1 <0>         0.1599
     39 H4         -5.8649   -5.5367    0.8700 H         1 <0>         0.0574
     40 H5         -6.8323   -6.0992    2.2447 H         1 <0>         0.0629
     41 H6          4.2244   -4.2993    4.2761 H         1 <0>         0.0614
     42 H7          3.6296   -3.9402    2.6542 H         1 <0>         0.0593
     43 H8          4.3500   -1.7152    1.5243 H         1 <0>         0.0841
     44 H9          5.3525   -0.5834    2.4253 H         1 <0>         0.0679
     45 H10         1.8623   -3.5349    4.3059 H         1 <0>         0.0826
     46 H11         2.8945   -2.4435    5.2260 H         1 <0>         0.0383
     47 H12        -5.5819   -2.8910    0.6223 H         1 <0>         0.0556
     48 H13        -6.5698   -1.8534    1.6532 H         1 <0>         0.0415
     49 H14         2.8873    0.0006    2.2858 H         1 <0>         0.0851
     50 H15        -7.4189   -3.8345    2.8938 H         1 <0>         0.0639
     51 H16         5.3432   -2.0892    4.3913 H         1 <0>         0.0584
     52 H17        -8.8065   -3.1885    1.0498 H         1 <0>         0.0401
     53 H18        -7.7094   -3.9182   -0.1385 H         1 <0>         0.0440
     54 H19        -8.6550   -4.9533    0.9490 H         1 <0>         0.0459
     55 H20         6.5585   -2.6519    1.8763 H         1 <0>         0.0456
     56 H21         7.1004   -3.1536    3.4896 H         1 <0>         0.0366
     57 H22         6.0293   -4.2073    2.5458 H         1 <0>         0.0474
     58 H23        -0.4002   -5.3741    2.9994 H         1 <0>         0.0800
     59 H24        -1.6035   -4.5964    1.9658 H         1 <0>         0.0681
     60 H25         0.1357   -3.0322    1.0943 H         1 <0>         0.0740
     61 H26         1.3654   -3.8328    2.0643 H         1 <0>         0.0631
     62 H27         0.8739   -6.0869    0.9513 H         1 <0>         0.0970
     63 H28        -0.3350   -5.2785   -0.0598 H         1 <0>         0.0725
     64 H29         0.1003   -3.1895    4.1787 H         1 <0>         0.0839
     65 H30        -4.4783   -1.8939    2.7937 H         1 <0>         0.4531
     66 H31        -2.3726   -9.2741    0.6745 H         1 <0>         0.4798
     67 H32        -1.6070   -9.8240   -0.7830 H         1 <0>         0.4881
     68 H33         0.6213   -6.9877   -1.1696 H         1 <0>         0.4801
     69 H34         0.1212   -8.5082   -1.8524 H         1 <0>         0.4806
     70 H35        -1.6814   -7.1337    1.6450 H         1 <0>         0.4689
     71 H36        -1.4850   -1.3266    2.4871 H         1 <0>         0.4505
     72 H37         4.2804    2.0579    4.5068 H         1 <0>         0.4443
@<TRIPOS>BOND
     1    1    2 ar
     2    1    3 ar
     3    2    4 ar
     4    3    6 ar
     5    4    5 ar
     6    4   10 1
     7    5    6 ar
     8    5   24 1
     9    6   35 1
    10    7   15 1
    11    7   30 2
    12    7   34 1
    13    8   23 1
    14    8   25 am
    15    8   31 2
    16    9   26 1
    17    9   27 1
    18    9   28 1
    19   10   16 1
    20   11   13 1
    21   11   17 1
    22   12   15 1
    23   12   17 1
    24   13   25 1
    25   14   16 1
    26   14   24 1
    27   15   25 1
    28   16   18 1
    29   17   19 1
    30   20   21 1
    31   20   22 1
    32   21   23 1
    33   22   28 1
    34   23   29 1
    35   29   35 1
    36   32   35 2
    37   33   35 2
    38    1   36 1
    39    2   37 1
    40    3   38 1
    41   10   39 1
    42   10   40 1
    43   11   41 1
    44   11   42 1
    45   12   43 1
    46   12   44 1
    47   13   45 1
    48   13   46 1
    49   14   47 1
    50   14   48 1
    51   15   49 1
    52   16   50 1
    53   17   51 1
    54   18   52 1
    55   18   53 1
    56   18   54 1
    57   19   55 1
    58   19   56 1
    59   19   57 1
    60   20   58 1
    61   20   59 1
    62   21   60 1
    63   21   61 1
    64   22   62 1
    65   22   63 1
    66   23   64 1
    67   24   65 1
    68   26   66 1
    69   26   67 1
    70   27   68 1
    71   27   69 1
    72   28   70 1
    73   29   71 1
    74   34   72 1
@<TRIPOS>MOLECULE
1dwc_ligand_343
   72    74     0     0     0
SMALL
USER_CHARGES

mmff94s_NoEstat = 82.38
@<TRIPOS>ATOM
      1 C1         -1.4167   -4.0969    7.4880 C.ar      1 <0>        -0.1945
      2 C2         -1.3782   -2.9116    8.2194 C.ar      1 <0>        -0.0294
      3 C3         -1.8193   -4.0774    6.1560 C.ar      1 <0>        -0.0143
      4 C4         -1.7393   -1.6967    7.6196 C.ar      1 <0>        -0.1552
      5 C5         -2.1757   -1.6726    6.2800 C.ar      1 <0>         0.3076
      6 C6         -2.1929   -2.8737    5.5561 C.ar      1 <0>        -0.4908
      7 C7          2.0323   -3.0842    5.9821 C.2       1 <0>         0.5994
      8 C8          0.8654   -1.4427    3.2413 C.2       1 <0>         0.6462
      9 C9          4.0141   -6.1014   -0.2251 C.cat     1 <0>         0.6305
     10 C10        -1.6986   -0.4229    8.4294 C.3       1 <0>        -0.0319
     11 C11         3.0911    0.4998    5.4298 C.3       1 <0>        -0.0918
     12 C12         1.5534   -0.8369    6.8842 C.3       1 <0>        -0.0841
     13 C13         2.8818   -0.5022    4.3015 C.3       1 <0>         0.0870
     14 C14        -2.7014    0.7278    6.4404 C.3       1 <0>         0.2023
     15 C15         1.2754   -1.7924    5.7207 C.3       1 <0>         0.0778
     16 C16        -1.6211    0.8160    7.5233 C.3       1 <0>        -0.0746
     17 C17         2.9339   -0.1724    6.7962 C.3       1 <0>        -0.0681
     18 C18        -1.7676    2.0967    8.3404 C.3       1 <0>        -0.0944
     19 C19         3.1216    0.8403    7.9242 C.3       1 <0>        -0.0918
     20 C20         1.7689   -4.0083    2.0091 C.3       1 <0>        -0.1192
     21 C21         0.3004   -3.5693    2.0376 C.3       1 <0>        -0.0916
     22 C22         2.0958   -4.8429    0.7769 C.3       1 <0>         0.1883
     23 C23        -0.0078   -2.6730    3.2260 C.3       1 <0>         0.1952
     24 N1         -2.5388   -0.4838    5.6592 N.pl3     1 <0>        -0.7670
     25 N2          1.5999   -1.2067    4.4091 N.am      1 <0>        -0.4509
     26 N3          5.3470   -6.4988   -0.2068 N.pl3     1 <0>        -0.8477
     27 N4          3.1913   -6.5359   -1.2586 N.pl3     1 <0>        -0.8633
     28 N5          3.4859   -5.2755    0.7729 N.pl3     1 <0>        -0.7419
     29 N6         -1.3760   -2.1385    3.1042 N.pl3     1 <0>        -0.8860
     30 O1          1.9271   -3.7676    6.9897 O.2       1 <0>        -0.5199
     31 O2          0.8891   -0.7105    2.2483 O.2       1 <0>        -0.6131
     32 O3         -2.6902   -4.3257    3.4539 O.2       1 <0>        -0.6576
     33 O4         -3.8691   -2.1223    3.7357 O.2       1 <0>        -0.6482
     34 O5          2.8490   -3.3795    4.9414 O.3       1 <0>        -0.6303
     35 S1         -2.6746   -2.9347    3.8647 S.o2      1 <0>         1.5193
     36 H1         -1.1294   -5.0344    7.9561 H         1 <0>         0.1426
     37 H2         -1.0595   -2.9358    9.2588 H         1 <0>         0.1398
     38 H3         -1.8474   -4.9936    5.5747 H         1 <0>         0.1599
     39 H4         -2.6003   -0.3825    9.0536 H         1 <0>         0.0574
     40 H5         -0.8290   -0.4326    9.0980 H         1 <0>         0.0629
     41 H6          4.0885    0.9467    5.3426 H         1 <0>         0.0614
     42 H7          2.3630    1.3153    5.3324 H         1 <0>         0.0593
     43 H8          0.7851   -0.0517    6.8776 H         1 <0>         0.0841
     44 H9          1.4567   -1.3607    7.8437 H         1 <0>         0.0679
     45 H10         2.9560    0.0148    3.3392 H         1 <0>         0.0826
     46 H11         3.6704   -1.2643    4.3172 H         1 <0>         0.0383
     47 H12        -3.7013    0.7380    6.8917 H         1 <0>         0.0556
     48 H13        -2.6389    1.5936    5.7717 H         1 <0>         0.0415
     49 H14         0.2160   -2.0663    5.7460 H         1 <0>         0.0851
     50 H15        -0.6364    0.8362    7.0371 H         1 <0>         0.0639
     51 H16         3.7104   -0.9392    6.9078 H         1 <0>         0.0584
     52 H17        -1.4722    2.9671    7.7470 H         1 <0>         0.0401
     53 H18        -2.8055    2.2330    8.6588 H         1 <0>         0.0440
     54 H19        -1.1357    2.0577    9.2327 H         1 <0>         0.0459
     55 H20         2.2527    0.8404    8.5891 H         1 <0>         0.0456
     56 H21         4.0086    0.5961    8.5164 H         1 <0>         0.0366
     57 H22         3.2450    1.8489    7.5186 H         1 <0>         0.0474
     58 H23         2.4156   -3.1229    2.0318 H         1 <0>         0.0800
     59 H24         1.9949   -4.6013    2.9028 H         1 <0>         0.0681
     60 H25        -0.3448   -4.4577    2.0448 H         1 <0>         0.0740
     61 H26         0.0666   -3.0218    1.1158 H         1 <0>         0.0631
     62 H27         1.9087   -4.2801   -0.1431 H         1 <0>         0.0970
     63 H28         1.4704   -5.7411    0.7573 H         1 <0>         0.0725
     64 H29         0.1003   -3.1895    4.1787 H         1 <0>         0.0839
     65 H30        -2.9169   -0.5266    4.7209 H         1 <0>         0.4531
     66 H31         5.9857   -6.2045    0.5272 H         1 <0>         0.4798
     67 H32         5.7233   -7.0992   -0.9370 H         1 <0>         0.4881
     68 H33         2.2121   -6.2643   -1.3027 H         1 <0>         0.4801
     69 H34         3.5471   -7.1379   -1.9973 H         1 <0>         0.4806
     70 H35         4.1145   -4.9729    1.5185 H         1 <0>         0.4689
     71 H36        -1.4476   -1.1318    2.9219 H         1 <0>         0.4505
     72 H37         3.3485   -4.2102    5.0920 H         1 <0>         0.4443
@<TRIPOS>BOND
     1    1    2 ar
     2    1    3 ar
     3    2    4 ar
     4    3    6 ar
     5    4    5 ar
     6    4   10 1
     7    5    6 ar
     8    5   24 1
     9    6   35 1
    10    7   15 1
    11    7   30 2
    12    7   34 1
    13    8   23 1
    14    8   25 am
    15    8   31 2
    16    9   26 1
    17    9   27 1
    18    9   28 1
    19   10   16 1
    20   11   13 1
    21   11   17 1
    22   12   15 1
    23   12   17 1
    24   13   25 1
    25   14   16 1
    26   14   24 1
    27   15   25 1
    28   16   18 1
    29   17   19 1
    30   20   21 1
    31   20   22 1
    32   21   23 1
    33   22   28 1
    34   23   29 1
    35   29   35 1
    36   32   35 2
    37   33   35 2
    38    1   36 1
    39    2   37 1
    40    3   38 1
    41   10   39 1
    42   10   40 1
    43   11   41 1
    44   11   42 1
    45   12   43 1
    46   12   44 1
    47   13   45 1
    48   13   46 1
    49   14   47 1
    50   14   48 1
    51   15   49 1
    52   16   50 1
    53   17   51 1
    54   18   52 1
    55   18   53 1
    56   18   54 1
    57   19   55 1
    58   19   56 1
    59   19   57 1
    60   20   58 1
    61   20   59 1
    62   21   60 1
    63   21   61 1
    64   22   62 1
    65   22   63 1
    66   23   64 1
    67   24   65 1
    68   26   66 1
    69   26   67 1
    70   27   68 1
    71   27   69 1
    72   28   70 1
    73   29   71 1
    74   34   72 1
@<TRIPOS>MOLECULE
1dwc_ligand_344
   72    74     0     0     0
SMALL
USER_CHARGES

mmff94s_NoEstat = 82.39
@<TRIPOS>ATOM
      1 C1         -3.3475   -6.3503    1.8791 C.ar      1 <0>        -0.1945
      2 C2         -3.9958   -5.9344    0.7180 C.ar      1 <0>        -0.0294
      3 C3         -2.9512   -5.4113    2.8268 C.ar      1 <0>        -0.0143
      4 C4         -4.2554   -4.5738    0.4999 C.ar      1 <0>        -0.1552
      5 C5         -3.8316   -3.6142    1.4408 C.ar      1 <0>         0.3076
      6 C6         -3.1944   -4.0540    2.6102 C.ar      1 <0>        -0.4908
      7 C7          0.7009   -2.1464    6.5648 C.2       1 <0>         0.5994
      8 C8          0.8654   -1.4427    3.2413 C.2       1 <0>         0.6462
      9 C9          2.0746   -5.2044   -1.4852 C.cat     1 <0>         0.6305
     10 C10        -4.9524   -4.1403   -0.7675 C.3       1 <0>        -0.0319
     11 C11         2.1349    1.1778    5.4857 C.3       1 <0>        -0.0918
     12 C12         0.0512    0.2342    6.5026 C.3       1 <0>        -0.0841
     13 C13         2.3350   -0.1191    4.7120 C.3       1 <0>         0.0870
     14 C14        -4.5641   -1.7769   -0.0261 C.3       1 <0>         0.2023
     15 C15         0.2061   -1.0325    5.6569 C.3       1 <0>         0.0778
     16 C16        -5.5921   -2.7519   -0.6095 C.3       1 <0>        -0.0746
     17 C17         1.3898    0.9236    6.7987 C.3       1 <0>        -0.0681
     18 C18        -6.1301   -2.2464   -1.9453 C.3       1 <0>        -0.0944
     19 C19         1.1710    2.2294    7.5603 C.3       1 <0>        -0.0918
     20 C20         0.0249   -2.8727    0.7002 C.3       1 <0>        -0.1192
     21 C21         0.3004   -3.5693    2.0376 C.3       1 <0>        -0.0916
     22 C22         0.2602   -3.7963   -0.4886 C.3       1 <0>         0.1883
     23 C23        -0.0078   -2.6730    3.2260 C.3       1 <0>         0.1952
     24 N1         -4.0757   -2.2595    1.2518 N.pl3     1 <0>        -0.7670
     25 N2          1.0754   -0.8353    4.4846 N.am      1 <0>        -0.4509
     26 N3          3.3877   -5.6631   -1.4955 N.pl3     1 <0>        -0.8477
     27 N4          1.1890   -5.6621   -2.4548 N.pl3     1 <0>        -0.8633
     28 N5          1.6278   -4.2942   -0.5212 N.pl3     1 <0>        -0.7419
     29 N6         -1.3760   -2.1385    3.1042 N.pl3     1 <0>        -0.8860
     30 O1          1.8726   -2.4569    6.7201 O.2       1 <0>        -0.5199
     31 O2          1.3411   -1.0305    2.1799 O.2       1 <0>        -0.6131
     32 O3         -3.7495   -1.9880    4.0928 O.2       1 <0>        -0.6576
     33 O4         -2.1627   -3.7355    4.9602 O.2       1 <0>        -0.6482
     34 O5         -0.3390   -2.7573    7.1834 O.3       1 <0>        -0.6303
     35 S1         -2.6746   -2.9347    3.8647 S.o2      1 <0>         1.5193
     36 H1         -3.1550   -7.4065    2.0458 H         1 <0>         0.1426
     37 H2         -4.3045   -6.6753   -0.0157 H         1 <0>         0.1398
     38 H3         -2.4509   -5.7242    3.7377 H         1 <0>         0.1599
     39 H4         -4.2148   -4.1296   -1.5800 H         1 <0>         0.0574
     40 H5         -5.7315   -4.8656   -1.0323 H         1 <0>         0.0629
     41 H6          3.1095    1.6373    5.6888 H         1 <0>         0.0614
     42 H7          1.5671    1.8861    4.8689 H         1 <0>         0.0593
     43 H8         -0.5924    0.9376    5.9566 H         1 <0>         0.0841
     44 H9         -0.4632    0.0070    7.4450 H         1 <0>         0.0679
     45 H10         2.8294    0.0994    3.7598 H         1 <0>         0.0826
     46 H11         2.9949   -0.7966    5.2674 H         1 <0>         0.0383
     47 H12        -3.7191   -1.6505   -0.7142 H         1 <0>         0.0556
     48 H13        -5.0170   -0.7893    0.1158 H         1 <0>         0.0415
     49 H14        -0.7880   -1.3485    5.3249 H         1 <0>         0.0851
     50 H15        -6.4375   -2.8304    0.0874 H         1 <0>         0.0639
     51 H16         1.9994    0.2688    7.4336 H         1 <0>         0.0584
     52 H17        -6.7909   -1.3877   -1.7933 H         1 <0>         0.0401
     53 H18        -5.3086   -1.9377   -2.5987 H         1 <0>         0.0440
     54 H19        -6.6976   -3.0320   -2.4531 H         1 <0>         0.0459
     55 H20         0.1089    2.3722    7.7811 H         1 <0>         0.0456
     56 H21         1.7213    2.2199    8.5059 H         1 <0>         0.0366
     57 H22         1.5173    3.0821    6.9686 H         1 <0>         0.0474
     58 H23        -1.0105   -2.5120    0.6824 H         1 <0>         0.0800
     59 H24         0.6776   -1.9980    0.5976 H         1 <0>         0.0681
     60 H25         1.3460   -3.9033    2.0652 H         1 <0>         0.0740
     61 H26        -0.3175   -4.4733    2.1109 H         1 <0>         0.0631
     62 H27         0.0590   -3.2831   -1.4342 H         1 <0>         0.0970
     63 H28        -0.4054   -4.6631   -0.4257 H         1 <0>         0.0725
     64 H29         0.1003   -3.1895    4.1787 H         1 <0>         0.0839
     65 H30        -3.6865   -1.6028    1.9171 H         1 <0>         0.4531
     66 H31         4.0702   -5.3548   -0.8082 H         1 <0>         0.4798
     67 H32         3.7046   -6.3246   -2.2006 H         1 <0>         0.4881
     68 H33         0.2221   -5.3473   -2.4765 H         1 <0>         0.4801
     69 H34         1.4849   -6.3248   -3.1675 H         1 <0>         0.4806
     70 H35         2.3012   -3.9765    0.1776 H         1 <0>         0.4689
     71 H36        -1.4476   -1.1318    2.9219 H         1 <0>         0.4505
     72 H37        -0.0400   -3.4817    7.7735 H         1 <0>         0.4443
@<TRIPOS>BOND
     1    1    2 ar
     2    1    3 ar
     3    2    4 ar
     4    3    6 ar
     5    4    5 ar
     6    4   10 1
     7    5    6 ar
     8    5   24 1
     9    6   35 1
    10    7   15 1
    11    7   30 2
    12    7   34 1
    13    8   23 1
    14    8   25 am
    15    8   31 2
    16    9   26 1
    17    9   27 1
    18    9   28 1
    19   10   16 1
    20   11   13 1
    21   11   17 1
    22   12   15 1
    23   12   17 1
    24   13   25 1
    25   14   16 1
    26   14   24 1
    27   15   25 1
    28   16   18 1
    29   17   19 1
    30   20   21 1
    31   20   22 1
    32   21   23 1
    33   22   28 1
    34   23   29 1
    35   29   35 1
    36   32   35 2
    37   33   35 2
    38    1   36 1
    39    2   37 1
    40    3   38 1
    41   10   39 1
    42   10   40 1
    43   11   41 1
    44   11   42 1
    45   12   43 1
    46   12   44 1
    47   13   45 1
    48   13   46 1
    49   14   47 1
    50   14   48 1
    51   15   49 1
    52   16   50 1
    53   17   51 1
    54   18   52 1
    55   18   53 1
    56   18   54 1
    57   19   55 1
    58   19   56 1
    59   19   57 1
    60   20   58 1
    61   20   59 1
    62   21   60 1
    63   21   61 1
    64   22   62 1
    65   22   63 1
    66   23   64 1
    67   24   65 1
    68   26   66 1
    69   26   67 1
    70   27   68 1
    71   27   69 1
    72   28   70 1
    73   29   71 1
    74   34   72 1
@<TRIPOS>MOLECULE
1dwc_ligand_345
   72    74     0     0     0
SMALL
USER_CHARGES

mmff94s_NoEstat = 82.39
@<TRIPOS>ATOM
      1 C1         -1.5516   -4.4277    7.3298 C.ar      1 <0>        -0.1945
      2 C2         -2.3348   -5.5104    6.9352 C.ar      1 <0>        -0.0294
      3 C3         -1.5385   -3.2654    6.5644 C.ar      1 <0>        -0.0143
      4 C4         -3.1142   -5.4347    5.7720 C.ar      1 <0>        -0.1552
      5 C5         -3.0840   -4.2723    4.9761 C.ar      1 <0>         0.3076
      6 C6         -2.3015   -3.1877    5.3982 C.ar      1 <0>        -0.4908
      7 C7          3.5686   -3.4379    3.7704 C.2       1 <0>         0.5994
      8 C8          0.8654   -1.4427    3.2413 C.2       1 <0>         0.6462
      9 C9         -1.1012   -7.8073    4.3609 C.cat     1 <0>         0.6305
     10 C10        -3.9512   -6.6204    5.3554 C.3       1 <0>        -0.0319
     11 C11         3.4440   -0.0674    5.4719 C.3       1 <0>        -0.0918
     12 C12         3.1682   -2.4952    6.0163 C.3       1 <0>        -0.0841
     13 C13         2.9000   -0.3276    4.0730 C.3       1 <0>         0.0870
     14 C14        -4.5113   -5.3376    3.2753 C.3       1 <0>         0.2023
     15 C15         2.5392   -2.7371    4.6417 C.3       1 <0>         0.0778
     16 C16        -5.0831   -6.2018    4.4040 C.3       1 <0>        -0.0746
     17 C17         4.1435   -1.3104    6.0281 C.3       1 <0>        -0.0681
     18 C18        -5.8039   -7.4257    3.8454 C.3       1 <0>        -0.0944
     19 C19         4.6673   -1.0527    7.4396 C.3       1 <0>        -0.0918
     20 C20        -0.5404   -4.8511    2.0458 C.3       1 <0>        -0.1192
     21 C21         0.3004   -3.5693    2.0376 C.3       1 <0>        -0.0916
     22 C22        -0.3597   -5.6492    3.3311 C.3       1 <0>         0.1883
     23 C23        -0.0078   -2.6730    3.2260 C.3       1 <0>         0.1952
     24 N1         -3.8463   -4.1684    3.8190 N.pl3     1 <0>        -0.7670
     25 N2          2.0252   -1.5038    4.0223 N.am      1 <0>        -0.4509
     26 N3         -1.8613   -8.9717    4.3243 N.pl3     1 <0>        -0.8477
     27 N4         -0.2834   -7.5659    5.4595 N.pl3     1 <0>        -0.8633
     28 N5         -1.1428   -6.8764    3.3174 N.pl3     1 <0>        -0.7419
     29 N6         -1.3760   -2.1385    3.1042 N.pl3     1 <0>        -0.8860
     30 O1          4.4853   -4.1308    4.1865 O.2       1 <0>        -0.5199
     31 O2          0.5240   -0.4555    2.5844 O.2       1 <0>        -0.6131
     32 O3         -3.5960   -1.3232    4.1243 O.2       1 <0>        -0.6576
     33 O4         -1.4314   -0.7555    5.2719 O.2       1 <0>        -0.6482
     34 O5          3.3351   -3.1885    2.4588 O.3       1 <0>        -0.6303
     35 S1         -2.2397   -1.6774    4.4970 S.o2      1 <0>         1.5193
     36 H1         -0.9549   -4.4896    8.2356 H         1 <0>         0.1426
     37 H2         -2.3412   -6.4135    7.5409 H         1 <0>         0.1398
     38 H3         -0.9370   -2.4135    6.8653 H         1 <0>         0.1599
     39 H4         -3.2943   -7.3516    4.8675 H         1 <0>         0.0574
     40 H5         -4.3865   -7.1001    6.2407 H         1 <0>         0.0629
     41 H6          4.1435    0.7764    5.4419 H         1 <0>         0.0614
     42 H7          2.6191    0.2214    6.1357 H         1 <0>         0.0593
     43 H8          2.3618   -2.2928    6.7345 H         1 <0>         0.0841
     44 H9          3.6813   -3.3988    6.3690 H         1 <0>         0.0679
     45 H10         2.3679    0.5618    3.7197 H         1 <0>         0.0826
     46 H11         3.7232   -0.5081    3.3711 H         1 <0>         0.0383
     47 H12        -3.7986   -5.9137    2.6721 H         1 <0>         0.0556
     48 H13        -5.3138   -5.0110    2.6047 H         1 <0>         0.0415
     49 H14         1.7211   -3.4548    4.7590 H         1 <0>         0.0851
     50 H15        -5.8148   -5.6064    4.9667 H         1 <0>         0.0639
     51 H16         5.0063   -1.5479    5.3937 H         1 <0>         0.0584
     52 H17        -6.7464   -7.1341    3.3725 H         1 <0>         0.0401
     53 H18        -5.1841   -7.9286    3.0971 H         1 <0>         0.0440
     54 H19        -6.0259   -8.1390    4.6448 H         1 <0>         0.0459
     55 H20         4.2777   -1.8006    8.1367 H         1 <0>         0.0456
     56 H21         5.7602   -1.1000    7.4588 H         1 <0>         0.0366
     57 H22         4.3590   -0.0627    7.7891 H         1 <0>         0.0474
     58 H23        -1.5993   -4.5943    1.9218 H         1 <0>         0.0800
     59 H24        -0.2563   -5.4850    1.1980 H         1 <0>         0.0681
     60 H25         0.1357   -3.0322    1.0943 H         1 <0>         0.0740
     61 H26         1.3654   -3.8328    2.0643 H         1 <0>         0.0631
     62 H27        -0.6565   -5.0623    4.2062 H         1 <0>         0.0970
     63 H28         0.6914   -5.9295    3.4522 H         1 <0>         0.0725
     64 H29         0.1003   -3.1895    4.1787 H         1 <0>         0.0839
     65 H30        -3.7341   -3.3447    3.2409 H         1 <0>         0.4531
     66 H31        -2.4745   -9.1890    3.5432 H         1 <0>         0.4798
     67 H32        -1.8257   -9.6431    5.0878 H         1 <0>         0.4881
     68 H33         0.2854   -6.7248    5.5187 H         1 <0>         0.4801
     69 H34        -0.2317   -8.2251    6.2325 H         1 <0>         0.4806
     70 H35        -1.7526   -7.0814    2.5245 H         1 <0>         0.4689
     71 H36        -1.6042   -1.6955    2.2078 H         1 <0>         0.4505
     72 H37         3.9911   -3.6313    1.8792 H         1 <0>         0.4443
@<TRIPOS>BOND
     1    1    2 ar
     2    1    3 ar
     3    2    4 ar
     4    3    6 ar
     5    4    5 ar
     6    4   10 1
     7    5    6 ar
     8    5   24 1
     9    6   35 1
    10    7   15 1
    11    7   30 2
    12    7   34 1
    13    8   23 1
    14    8   25 am
    15    8   31 2
    16    9   26 1
    17    9   27 1
    18    9   28 1
    19   10   16 1
    20   11   13 1
    21   11   17 1
    22   12   15 1
    23   12   17 1
    24   13   25 1
    25   14   16 1
    26   14   24 1
    27   15   25 1
    28   16   18 1
    29   17   19 1
    30   20   21 1
    31   20   22 1
    32   21   23 1
    33   22   28 1
    34   23   29 1
    35   29   35 1
    36   32   35 2
    37   33   35 2
    38    1   36 1
    39    2   37 1
    40    3   38 1
    41   10   39 1
    42   10   40 1
    43   11   41 1
    44   11   42 1
    45   12   43 1
    46   12   44 1
    47   13   45 1
    48   13   46 1
    49   14   47 1
    50   14   48 1
    51   15   49 1
    52   16   50 1
    53   17   51 1
    54   18   52 1
    55   18   53 1
    56   18   54 1
    57   19   55 1
    58   19   56 1
    59   19   57 1
    60   20   58 1
    61   20   59 1
    62   21   60 1
    63   21   61 1
    64   22   62 1
    65   22   63 1
    66   23   64 1
    67   24   65 1
    68   26   66 1
    69   26   67 1
    70   27   68 1
    71   27   69 1
    72   28   70 1
    73   29   71 1
    74   34   72 1
@<TRIPOS>MOLECULE
1dwc_ligand_346
   72    74     0     0     0
SMALL
USER_CHARGES

mmff94s_NoEstat = 82.45
@<TRIPOS>ATOM
      1 C1         -0.8286   -2.9199    0.8534 C.ar      1 <0>        -0.1945
      2 C2         -1.7033   -1.8794    0.5476 C.ar      1 <0>        -0.0294
      3 C3          0.0428   -3.4022   -0.1187 C.ar      1 <0>        -0.0143
      4 C4         -1.7082   -1.3114   -0.7344 C.ar      1 <0>        -0.1552
      5 C5         -0.8495   -1.8133   -1.7326 C.ar      1 <0>         0.3076
      6 C6          0.0341   -2.8506   -1.4009 C.ar      1 <0>        -0.4908
      7 C7          1.8102   -1.5505    2.3702 C.2       1 <0>         0.5994
      8 C8          2.9466   -1.3973   -0.6457 C.2       1 <0>         0.6462
      9 C9          8.3972   -2.1425   -3.3525 C.cat     1 <0>         0.6305
     10 C10        -2.6680   -0.1893   -1.0504 C.3       1 <0>        -0.0319
     11 C11         4.4920   -3.4807    2.0801 C.3       1 <0>        -0.0918
     12 C12         4.1798   -1.0721    2.8769 C.3       1 <0>        -0.0841
     13 C13         4.5658   -2.7774    0.7291 C.3       1 <0>         0.0870
     14 C14        -1.8587   -0.3297   -3.4192 C.3       1 <0>         0.2023
     15 C15         3.1125   -1.0286    1.7861 C.3       1 <0>         0.0778
     16 C16        -2.2007    0.6226   -2.2686 C.3       1 <0>        -0.0746
     17 C17         4.5869   -2.5050    3.2643 C.3       1 <0>        -0.0681
     18 C18        -3.2657    1.6312   -2.6903 C.3       1 <0>        -0.0944
     19 C19         5.9882   -2.5079    3.8779 C.3       1 <0>        -0.0918
     20 C20         5.1203   -2.1076   -3.7746 C.3       1 <0>        -0.1192
     21 C21         4.5564   -1.3488   -2.5679 C.3       1 <0>        -0.0916
     22 C22         6.2766   -1.3646   -4.4322 C.3       1 <0>         0.1883
     23 C23         3.4544   -2.1251   -1.8653 C.3       1 <0>         0.1952
     24 N1         -0.8320   -1.2699   -3.0112 N.pl3     1 <0>        -0.7670
     25 N2          3.5192   -1.7560    0.5781 N.am      1 <0>        -0.4509
     26 N3          9.4536   -1.9437   -2.4696 N.pl3     1 <0>        -0.8477
     27 N4          8.3419   -3.3208   -4.0890 N.pl3     1 <0>        -0.8633
     28 N5          7.3917   -1.1832   -3.5140 N.pl3     1 <0>        -0.7419
     29 N6          2.2741   -2.2179   -2.7432 N.pl3     1 <0>        -0.8860
     30 O1          1.4308   -2.7108    2.3137 O.2       1 <0>        -0.5199
     31 O2          2.0685   -0.5400   -0.7710 O.2       1 <0>        -0.6131
     32 O3          1.8544   -4.6301   -1.9439 O.2       1 <0>        -0.6576
     33 O4          0.4554   -3.6903   -3.8104 O.2       1 <0>        -0.6482
     34 O5          1.1172   -0.5491    2.9655 O.3       1 <0>        -0.6303
     35 S1          1.1775   -3.5081   -2.5659 S.o2      1 <0>         1.5193
     36 H1         -0.8245   -3.3517    1.8505 H         1 <0>         0.1426
     37 H2         -2.3785   -1.5069    1.3143 H         1 <0>         0.1398
     38 H3          0.7327   -4.2083    0.1098 H         1 <0>         0.1599
     39 H4         -3.6572   -0.6251   -1.2397 H         1 <0>         0.0574
     40 H5         -2.7573    0.4805   -0.1863 H         1 <0>         0.0629
     41 H6          3.5311   -4.0088    2.1410 H         1 <0>         0.0614
     42 H7          5.2694   -4.2509    2.1463 H         1 <0>         0.0593
     43 H8          5.0641   -0.5305    2.5137 H         1 <0>         0.0841
     44 H9          3.8399   -0.5392    3.7741 H         1 <0>         0.0679
     45 H10         5.5312   -2.2723    0.6079 H         1 <0>         0.0826
     46 H11         4.4795   -3.5150   -0.0747 H         1 <0>         0.0383
     47 H12        -2.7506   -0.8819   -3.7404 H         1 <0>         0.0556
     48 H13        -1.4988    0.2368   -4.2854 H         1 <0>         0.0415
     49 H14         2.9188    0.0160    1.5141 H         1 <0>         0.0851
     50 H15        -1.2960    1.1816   -1.9939 H         1 <0>         0.0639
     51 H16         3.9047   -2.8651    4.0450 H         1 <0>         0.0584
     52 H17        -2.8470    2.3638   -3.3867 H         1 <0>         0.0401
     53 H18        -4.1008    1.1249   -3.1838 H         1 <0>         0.0440
     54 H19        -3.6540    2.1670   -1.8190 H         1 <0>         0.0459
     55 H20         6.0310   -3.1862    4.7353 H         1 <0>         0.0456
     56 H21         6.7293   -2.8350    3.1425 H         1 <0>         0.0366
     57 H22         6.2606   -1.5045    4.2187 H         1 <0>         0.0474
     58 H23         5.4592   -3.1007   -3.4560 H         1 <0>         0.0800
     59 H24         4.3307   -2.2553   -4.5204 H         1 <0>         0.0681
     60 H25         4.1906   -0.3664   -2.8945 H         1 <0>         0.0740
     61 H26         5.3633   -1.1575   -1.8491 H         1 <0>         0.0631
     62 H27         5.9616   -0.3787   -4.7887 H         1 <0>         0.0970
     63 H28         6.6457   -1.9332   -5.2916 H         1 <0>         0.0725
     64 H29         3.7703   -3.1244   -1.5692 H         1 <0>         0.0839
     65 H30        -0.2532   -1.7124   -3.7145 H         1 <0>         0.4531
     66 H31         9.5364   -1.0976   -1.9123 H         1 <0>         0.4798
     67 H32        10.1811   -2.6463   -2.3587 H         1 <0>         0.4881
     68 H33         7.5837   -3.4984   -4.7434 H         1 <0>         0.4801
     69 H34         9.0579   -4.0367   -3.9917 H         1 <0>         0.4806
     70 H35         7.4597   -0.3285   -2.9594 H         1 <0>         0.4689
     71 H36         1.9407   -1.3323   -3.1385 H         1 <0>         0.4505
     72 H37         0.2712   -0.8659    3.3478 H         1 <0>         0.4443
@<TRIPOS>BOND
     1    1    2 ar
     2    1    3 ar
     3    2    4 ar
     4    3    6 ar
     5    4    5 ar
     6    4   10 1
     7    5    6 ar
     8    5   24 1
     9    6   35 1
    10    7   15 1
    11    7   30 2
    12    7   34 1
    13    8   23 1
    14    8   25 am
    15    8   31 2
    16    9   26 1
    17    9   27 1
    18    9   28 1
    19   10   16 1
    20   11   13 1
    21   11   17 1
    22   12   15 1
    23   12   17 1
    24   13   25 1
    25   14   16 1
    26   14   24 1
    27   15   25 1
    28   16   18 1
    29   17   19 1
    30   20   21 1
    31   20   22 1
    32   21   23 1
    33   22   28 1
    34   23   29 1
    35   29   35 1
    36   32   35 2
    37   33   35 2
    38    1   36 1
    39    2   37 1
    40    3   38 1
    41   10   39 1
    42   10   40 1
    43   11   41 1
    44   11   42 1
    45   12   43 1
    46   12   44 1
    47   13   45 1
    48   13   46 1
    49   14   47 1
    50   14   48 1
    51   15   49 1
    52   16   50 1
    53   17   51 1
    54   18   52 1
    55   18   53 1
    56   18   54 1
    57   19   55 1
    58   19   56 1
    59   19   57 1
    60   20   58 1
    61   20   59 1
    62   21   60 1
    63   21   61 1
    64   22   62 1
    65   22   63 1
    66   23   64 1
    67   24   65 1
    68   26   66 1
    69   26   67 1
    70   27   68 1
    71   27   69 1
    72   28   70 1
    73   29   71 1
    74   34   72 1
@<TRIPOS>MOLECULE
1dwc_ligand_347
   72    74     0     0     0
SMALL
USER_CHARGES

mmff94s_NoEstat = 82.47
@<TRIPOS>ATOM
      1 C1          4.9532   -5.8953   -3.7094 C.ar      1 <0>        -0.1945
      2 C2          5.1622   -5.8217   -5.0850 C.ar      1 <0>        -0.0294
      3 C3          3.8623   -5.2471   -3.1377 C.ar      1 <0>        -0.0143
      4 C4          4.2766   -5.1008   -5.8987 C.ar      1 <0>        -0.1552
      5 C5          3.1862   -4.4178   -5.3241 C.ar      1 <0>         0.3076
      6 C6          2.9841   -4.5166   -3.9399 C.ar      1 <0>        -0.4908
      7 C7          1.8102   -1.5505    2.3702 C.2       1 <0>         0.5994
      8 C8          2.9466   -1.3973   -0.6457 C.2       1 <0>         0.6462
      9 C9          8.5933   -0.5790   -3.8993 C.cat     1 <0>         0.6305
     10 C10         4.5227   -5.0256   -7.3866 C.3       1 <0>        -0.0319
     11 C11         4.4920   -3.4807    2.0801 C.3       1 <0>        -0.0918
     12 C12         4.1798   -1.0721    2.8769 C.3       1 <0>        -0.0841
     13 C13         4.5658   -2.7774    0.7291 C.3       1 <0>         0.0870
     14 C14         2.5887   -3.4342   -7.5012 C.3       1 <0>         0.2023
     15 C15         3.1125   -1.0286    1.7861 C.3       1 <0>         0.0778
     16 C16         3.2400   -4.6601   -8.1499 C.3       1 <0>        -0.0746
     17 C17         4.5869   -2.5050    3.2643 C.3       1 <0>        -0.0681
     18 C18         3.5391   -4.4055   -9.6247 C.3       1 <0>        -0.0944
     19 C19         5.9882   -2.5079    3.8779 C.3       1 <0>        -0.0918
     20 C20         5.1203   -2.1076   -3.7746 C.3       1 <0>        -0.1192
     21 C21         4.5564   -1.3488   -2.5679 C.3       1 <0>        -0.0916
     22 C22         6.2766   -1.3646   -4.4322 C.3       1 <0>         0.1883
     23 C23         3.4544   -2.1251   -1.8653 C.3       1 <0>         0.1952
     24 N1          2.2921   -3.6964   -6.1056 N.pl3     1 <0>        -0.7670
     25 N2          3.5192   -1.7560    0.5781 N.am      1 <0>        -0.4509
     26 N3          9.6431   -0.4158   -3.0015 N.pl3     1 <0>        -0.8477
     27 N4          8.7440   -0.1312   -5.2072 N.pl3     1 <0>        -0.8633
     28 N5          7.3917   -1.1832   -3.5140 N.pl3     1 <0>        -0.7419
     29 N6          2.2741   -2.2179   -2.7432 N.pl3     1 <0>        -0.8860
     30 O1          1.2492   -1.0925    3.3546 O.2       1 <0>        -0.5199
     31 O2          2.0685   -0.5400   -0.7710 O.2       1 <0>        -0.6131
     32 O3          0.5666   -3.5687   -4.1193 O.2       1 <0>        -0.6576
     33 O4          1.3717   -4.4805   -1.9182 O.2       1 <0>        -0.6482
     34 O5          1.3501   -2.6026    1.6500 O.3       1 <0>        -0.6303
     35 S1          1.6226   -3.7401   -3.1398 S.o2      1 <0>         1.5193
     36 H1          5.6389   -6.4609   -3.0846 H         1 <0>         0.1426
     37 H2          6.0155   -6.3337   -5.5234 H         1 <0>         0.1398
     38 H3          3.6860   -5.3025   -2.0682 H         1 <0>         0.1599
     39 H4          5.3018   -4.2747   -7.5695 H         1 <0>         0.0574
     40 H5          4.8951   -5.9901   -7.7531 H         1 <0>         0.0629
     41 H6          3.5311   -4.0088    2.1410 H         1 <0>         0.0614
     42 H7          5.2694   -4.2509    2.1463 H         1 <0>         0.0593
     43 H8          5.0641   -0.5305    2.5137 H         1 <0>         0.0841
     44 H9          3.8399   -0.5392    3.7741 H         1 <0>         0.0679
     45 H10         5.5312   -2.2723    0.6079 H         1 <0>         0.0826
     46 H11         4.4795   -3.5150   -0.0747 H         1 <0>         0.0383
     47 H12         3.2503   -2.5621   -7.5748 H         1 <0>         0.0556
     48 H13         1.6584   -3.1799   -8.0213 H         1 <0>         0.0415
     49 H14         2.9188    0.0160    1.5141 H         1 <0>         0.0851
     50 H15         2.5400   -5.5044   -8.0880 H         1 <0>         0.0639
     51 H16         3.9047   -2.8651    4.0450 H         1 <0>         0.0584
     52 H17         2.6131   -4.3879  -10.2073 H         1 <0>         0.0401
     53 H18         4.0458   -3.4445   -9.7540 H         1 <0>         0.0440
     54 H19         4.1843   -5.1921  -10.0273 H         1 <0>         0.0459
     55 H20         6.0310   -3.1862    4.7353 H         1 <0>         0.0456
     56 H21         6.7293   -2.8350    3.1425 H         1 <0>         0.0366
     57 H22         6.2606   -1.5045    4.2187 H         1 <0>         0.0474
     58 H23         5.4592   -3.1007   -3.4560 H         1 <0>         0.0800
     59 H24         4.3307   -2.2553   -4.5204 H         1 <0>         0.0681
     60 H25         4.1906   -0.3664   -2.8945 H         1 <0>         0.0740
     61 H26         5.3633   -1.1575   -1.8491 H         1 <0>         0.0631
     62 H27         5.9616   -0.3787   -4.7887 H         1 <0>         0.0970
     63 H28         6.6457   -1.9332   -5.2916 H         1 <0>         0.0725
     64 H29         3.7703   -3.1244   -1.5692 H         1 <0>         0.0839
     65 H30         1.5692   -3.1613   -5.6404 H         1 <0>         0.4531
     66 H31         9.5774   -0.7257   -2.0356 H         1 <0>         0.4798
     67 H32        10.5134    0.0253   -3.2898 H         1 <0>         0.4881
     68 H33         7.9967   -0.2346   -5.8893 H         1 <0>         0.4801
     69 H34         9.6064    0.3108   -5.5164 H         1 <0>         0.4806
     70 H35         7.3110   -1.5018   -2.5472 H         1 <0>         0.4689
     71 H36         1.6613   -1.3957   -2.7560 H         1 <0>         0.4505
     72 H37         0.5099   -2.9556    2.0129 H         1 <0>         0.4443
@<TRIPOS>BOND
     1    1    2 ar
     2    1    3 ar
     3    2    4 ar
     4    3    6 ar
     5    4    5 ar
     6    4   10 1
     7    5    6 ar
     8    5   24 1
     9    6   35 1
    10    7   15 1
    11    7   30 2
    12    7   34 1
    13    8   23 1
    14    8   25 am
    15    8   31 2
    16    9   26 1
    17    9   27 1
    18    9   28 1
    19   10   16 1
    20   11   13 1
    21   11   17 1
    22   12   15 1
    23   12   17 1
    24   13   25 1
    25   14   16 1
    26   14   24 1
    27   15   25 1
    28   16   18 1
    29   17   19 1
    30   20   21 1
    31   20   22 1
    32   21   23 1
    33   22   28 1
    34   23   29 1
    35   29   35 1
    36   32   35 2
    37   33   35 2
    38    1   36 1
    39    2   37 1
    40    3   38 1
    41   10   39 1
    42   10   40 1
    43   11   41 1
    44   11   42 1
    45   12   43 1
    46   12   44 1
    47   13   45 1
    48   13   46 1
    49   14   47 1
    50   14   48 1
    51   15   49 1
    52   16   50 1
    53   17   51 1
    54   18   52 1
    55   18   53 1
    56   18   54 1
    57   19   55 1
    58   19   56 1
    59   19   57 1
    60   20   58 1
    61   20   59 1
    62   21   60 1
    63   21   61 1
    64   22   62 1
    65   22   63 1
    66   23   64 1
    67   24   65 1
    68   26   66 1
    69   26   67 1
    70   27   68 1
    71   27   69 1
    72   28   70 1
    73   29   71 1
    74   34   72 1
@<TRIPOS>MOLECULE
1dwc_ligand_348
   72    74     0     0     0
SMALL
USER_CHARGES

mmff94s_NoEstat = 82.50
@<TRIPOS>ATOM
      1 C1          5.9134   -3.9428   -5.7023 C.ar      1 <0>        -0.1945
      2 C2          6.3871   -5.2494   -5.6043 C.ar      1 <0>        -0.0294
      3 C3          5.8562   -3.1390   -4.5677 C.ar      1 <0>        -0.0143
      4 C4          6.8037   -5.7618   -4.3671 C.ar      1 <0>        -0.1552
      5 C5          6.7759   -4.9454   -3.2195 C.ar      1 <0>         0.3076
      6 C6          6.2812   -3.6382   -3.3354 C.ar      1 <0>        -0.4908
      7 C7          2.8752    1.3115    1.1058 C.2       1 <0>         0.5994
      8 C8          2.9466   -1.3973   -0.6457 C.2       1 <0>         0.6462
      9 C9          1.5211   -6.2682   -6.2170 C.cat     1 <0>         0.6305
     10 C10         7.3217   -7.1776   -4.2827 C.3       1 <0>        -0.0319
     11 C11         2.3641    2.0271   -2.0925 C.3       1 <0>        -0.0918
     12 C12         0.7649    1.6065   -0.1433 C.3       1 <0>        -0.0841
     13 C13         2.2856    0.5067   -2.1800 C.3       1 <0>         0.0870
     14 C14         7.8624   -6.7013   -1.8756 C.3       1 <0>         0.2023
     15 C15         1.8211    0.5897    0.2827 C.3       1 <0>         0.0778
     16 C16         7.2853   -7.7338   -2.8499 C.3       1 <0>        -0.0746
     17 C17         1.2898    2.6259   -1.1701 C.3       1 <0>        -0.0681
     18 C18         5.8749   -8.1764   -2.4440 C.3       1 <0>        -0.0944
     19 C19         0.1276    3.2108   -1.9746 C.3       1 <0>        -0.0918
     20 C20         2.8965   -3.7759   -3.7050 C.3       1 <0>        -0.1192
     21 C21         2.4114   -3.0756   -2.4306 C.3       1 <0>        -0.0916
     22 C22         1.8232   -4.6695   -4.3142 C.3       1 <0>         0.1883
     23 C23         3.4544   -2.1251   -1.8653 C.3       1 <0>         0.1952
     24 N1          7.1751   -5.4280   -1.9795 N.pl3     1 <0>        -0.7670
     25 N2          2.3949   -0.1309   -0.8598 N.am      1 <0>        -0.4509
     26 N3          2.0025   -6.9024   -7.3576 N.pl3     1 <0>        -0.8477
     27 N4          0.2351   -6.5562   -5.7729 N.pl3     1 <0>        -0.8633
     28 N5          2.3028   -5.3489   -5.5092 N.pl3     1 <0>        -0.7419
     29 N6          4.6097   -2.8934   -1.3678 N.pl3     1 <0>        -0.8860
     30 O1          4.0701    1.3352    0.8507 O.2       1 <0>        -0.5199
     31 O2          3.0377   -1.9312    0.4627 O.2       1 <0>        -0.6131
     32 O3          7.1528   -2.9869   -0.9708 O.2       1 <0>        -0.6576
     33 O4          6.2050   -1.2028   -2.4684 O.2       1 <0>        -0.6482
     34 O5          2.3100    1.9293    2.1718 O.3       1 <0>        -0.6303
     35 S1          6.1736   -2.5573   -1.9508 S.o2      1 <0>         1.5193
     36 H1          5.5859   -3.5531   -6.6623 H         1 <0>         0.1426
     37 H2          6.4255   -5.8713   -6.4955 H         1 <0>         0.1398
     38 H3          5.4834   -2.1215   -4.6308 H         1 <0>         0.1599
     39 H4          6.7434   -7.8328   -4.9456 H         1 <0>         0.0574
     40 H5          8.3586   -7.1752   -4.6424 H         1 <0>         0.0629
     41 H6          3.3521    2.2982   -1.6971 H         1 <0>         0.0614
     42 H7          2.3049    2.4652   -3.0956 H         1 <0>         0.0593
     43 H8         -0.0830    1.0592   -0.5778 H         1 <0>         0.0841
     44 H9          0.3696    2.1440    0.7282 H         1 <0>         0.0679
     45 H10         1.3285    0.1928   -2.6129 H         1 <0>         0.0826
     46 H11         3.0787    0.1346   -2.8358 H         1 <0>         0.0383
     47 H12         7.7911   -7.0673   -0.8453 H         1 <0>         0.0556
     48 H13         8.9275   -6.5478   -2.0884 H         1 <0>         0.0415
     49 H14         1.3638   -0.1412    0.9605 H         1 <0>         0.0851
     50 H15         7.9128   -8.6330   -2.8162 H         1 <0>         0.0639
     51 H16         1.7477    3.4645   -0.6301 H         1 <0>         0.0584
     52 H17         5.1466   -7.8868   -3.2074 H         1 <0>         0.0401
     53 H18         5.8329   -9.2629   -2.3224 H         1 <0>         0.0440
     54 H19         5.5841   -7.7122   -1.4969 H         1 <0>         0.0459
     55 H20         0.4103    4.1714   -2.4154 H         1 <0>         0.0456
     56 H21        -0.1604    2.5322   -2.7831 H         1 <0>         0.0366
     57 H22        -0.7432    3.3698   -1.3317 H         1 <0>         0.0474
     58 H23         3.2051   -3.0234   -4.4407 H         1 <0>         0.0800
     59 H24         3.7751   -4.3904   -3.4776 H         1 <0>         0.0681
     60 H25         2.1309   -3.8309   -1.6847 H         1 <0>         0.0740
     61 H26         1.5011   -2.5046   -2.6534 H         1 <0>         0.0631
     62 H27         0.9326   -4.0920   -4.5817 H         1 <0>         0.0970
     63 H28         1.5245   -5.4384   -3.5946 H         1 <0>         0.0725
     64 H29         3.7902   -1.3903   -2.5956 H         1 <0>         0.0839
     65 H30         7.2080   -4.7810   -1.2011 H         1 <0>         0.4531
     66 H31         2.9348   -6.7217   -7.7201 H         1 <0>         0.4798
     67 H32         1.4271   -7.5693   -7.8669 H         1 <0>         0.4881
     68 H33        -0.1482   -6.1107   -4.9428 H         1 <0>         0.4801
     69 H34        -0.3558   -7.2211   -6.2664 H         1 <0>         0.4806
     70 H35         3.2427   -5.1582   -5.8596 H         1 <0>         0.4689
     71 H36         4.5044   -3.3037   -0.4338 H         1 <0>         0.4505
     72 H37         2.9754    2.4001    2.7176 H         1 <0>         0.4443
@<TRIPOS>BOND
     1    1    2 ar
     2    1    3 ar
     3    2    4 ar
     4    3    6 ar
     5    4    5 ar
     6    4   10 1
     7    5    6 ar
     8    5   24 1
     9    6   35 1
    10    7   15 1
    11    7   30 2
    12    7   34 1
    13    8   23 1
    14    8   25 am
    15    8   31 2
    16    9   26 1
    17    9   27 1
    18    9   28 1
    19   10   16 1
    20   11   13 1
    21   11   17 1
    22   12   15 1
    23   12   17 1
    24   13   25 1
    25   14   16 1
    26   14   24 1
    27   15   25 1
    28   16   18 1
    29   17   19 1
    30   20   21 1
    31   20   22 1
    32   21   23 1
    33   22   28 1
    34   23   29 1
    35   29   35 1
    36   32   35 2
    37   33   35 2
    38    1   36 1
    39    2   37 1
    40    3   38 1
    41   10   39 1
    42   10   40 1
    43   11   41 1
    44   11   42 1
    45   12   43 1
    46   12   44 1
    47   13   45 1
    48   13   46 1
    49   14   47 1
    50   14   48 1
    51   15   49 1
    52   16   50 1
    53   17   51 1
    54   18   52 1
    55   18   53 1
    56   18   54 1
    57   19   55 1
    58   19   56 1
    59   19   57 1
    60   20   58 1
    61   20   59 1
    62   21   60 1
    63   21   61 1
    64   22   62 1
    65   22   63 1
    66   23   64 1
    67   24   65 1
    68   26   66 1
    69   26   67 1
    70   27   68 1
    71   27   69 1
    72   28   70 1
    73   29   71 1
    74   34   72 1
@<TRIPOS>MOLECULE
1dwc_ligand_349
   72    74     0     0     0
SMALL
USER_CHARGES

mmff94s_NoEstat = 82.56
@<TRIPOS>ATOM
      1 C1          2.6273   -4.0149   -7.0098 C.ar      1 <0>        -0.1945
      2 C2          3.8450   -4.6917   -6.9870 C.ar      1 <0>        -0.0294
      3 C3          1.9654   -3.7371   -5.8175 C.ar      1 <0>        -0.0143
      4 C4          4.4106   -5.0917   -5.7679 C.ar      1 <0>        -0.1552
      5 C5          3.7329   -4.8399   -4.5584 C.ar      1 <0>         0.3076
      6 C6          2.5161   -4.1440   -4.6011 C.ar      1 <0>        -0.4908
      7 C7          1.8102   -1.5505    2.3702 C.2       1 <0>         0.5994
      8 C8          2.9466   -1.3973   -0.6457 C.2       1 <0>         0.6462
      9 C9          8.5933   -0.5790   -3.8993 C.cat     1 <0>         0.6305
     10 C10         5.7274   -5.8307   -5.7625 C.3       1 <0>        -0.0319
     11 C11         4.4920   -3.4807    2.0801 C.3       1 <0>        -0.0918
     12 C12         4.1798   -1.0721    2.8769 C.3       1 <0>        -0.0841
     13 C13         4.5658   -2.7774    0.7291 C.3       1 <0>         0.0870
     14 C14         5.4257   -6.0988   -3.2880 C.3       1 <0>         0.2023
     15 C15         3.1125   -1.0286    1.7861 C.3       1 <0>         0.0778
     16 C16         6.4204   -5.7326   -4.3944 C.3       1 <0>        -0.0746
     17 C17         4.5869   -2.5050    3.2643 C.3       1 <0>        -0.0681
     18 C18         7.6522   -6.6324   -4.3434 C.3       1 <0>        -0.0944
     19 C19         5.9882   -2.5079    3.8779 C.3       1 <0>        -0.0918
     20 C20         5.1203   -2.1076   -3.7746 C.3       1 <0>        -0.1192
     21 C21         4.5564   -1.3488   -2.5679 C.3       1 <0>        -0.0916
     22 C22         6.2766   -1.3646   -4.4322 C.3       1 <0>         0.1883
     23 C23         3.4544   -2.1251   -1.8653 C.3       1 <0>         0.1952
     24 N1          4.2695   -5.2239   -3.3356 N.pl3     1 <0>        -0.7670
     25 N2          3.5192   -1.7560    0.5781 N.am      1 <0>        -0.4509
     26 N3          9.6431   -0.4158   -3.0015 N.pl3     1 <0>        -0.8477
     27 N4          8.7440   -0.1312   -5.2072 N.pl3     1 <0>        -0.8633
     28 N5          7.3917   -1.1832   -3.5140 N.pl3     1 <0>        -0.7419
     29 N6          2.2741   -2.2179   -2.7432 N.pl3     1 <0>        -0.8860
     30 O1          1.2492   -1.0925    3.3546 O.2       1 <0>        -0.5199
     31 O2          2.0685   -0.5400   -0.7710 O.2       1 <0>        -0.6131
     32 O3          0.2257   -3.5846   -3.4982 O.2       1 <0>        -0.6576
     33 O4          2.0133   -4.7010   -2.1261 O.2       1 <0>        -0.6482
     34 O5          1.3501   -2.6026    1.6500 O.3       1 <0>        -0.6303
     35 S1          1.6226   -3.7401   -3.1398 S.o2      1 <0>         1.5193
     36 H1          2.1970   -3.7014   -7.9569 H         1 <0>         0.1426
     37 H2          4.3565   -4.9018   -7.9233 H         1 <0>         0.1398
     38 H3          1.0194   -3.2051   -5.8226 H         1 <0>         0.1599
     39 H4          5.5344   -6.8806   -6.0173 H         1 <0>         0.0574
     40 H5          6.3916   -5.4165   -6.5310 H         1 <0>         0.0629
     41 H6          3.5311   -4.0088    2.1410 H         1 <0>         0.0614
     42 H7          5.2694   -4.2509    2.1463 H         1 <0>         0.0593
     43 H8          5.0641   -0.5305    2.5137 H         1 <0>         0.0841
     44 H9          3.8399   -0.5392    3.7741 H         1 <0>         0.0679
     45 H10         5.5312   -2.2723    0.6079 H         1 <0>         0.0826
     46 H11         4.4795   -3.5150   -0.0747 H         1 <0>         0.0383
     47 H12         5.0981   -7.1405   -3.3936 H         1 <0>         0.0556
     48 H13         5.9015   -6.0068   -2.3053 H         1 <0>         0.0415
     49 H14         2.9188    0.0160    1.5141 H         1 <0>         0.0851
     50 H15         6.7521   -4.6968   -4.2405 H         1 <0>         0.0639
     51 H16         3.9047   -2.8651    4.0450 H         1 <0>         0.0584
     52 H17         8.2744   -6.3835   -3.4786 H         1 <0>         0.0401
     53 H18         7.3578   -7.6832   -4.2652 H         1 <0>         0.0440
     54 H19         8.2552   -6.5099   -5.2482 H         1 <0>         0.0459
     55 H20         6.0310   -3.1862    4.7353 H         1 <0>         0.0456
     56 H21         6.7293   -2.8350    3.1425 H         1 <0>         0.0366
     57 H22         6.2606   -1.5045    4.2187 H         1 <0>         0.0474
     58 H23         5.4592   -3.1007   -3.4560 H         1 <0>         0.0800
     59 H24         4.3307   -2.2553   -4.5204 H         1 <0>         0.0681
     60 H25         4.1906   -0.3664   -2.8945 H         1 <0>         0.0740
     61 H26         5.3633   -1.1575   -1.8491 H         1 <0>         0.0631
     62 H27         5.9616   -0.3787   -4.7887 H         1 <0>         0.0970
     63 H28         6.6457   -1.9332   -5.2916 H         1 <0>         0.0725
     64 H29         3.7703   -3.1244   -1.5692 H         1 <0>         0.0839
     65 H30         3.7116   -5.0890   -2.5014 H         1 <0>         0.4531
     66 H31         9.5774   -0.7257   -2.0356 H         1 <0>         0.4798
     67 H32        10.5134    0.0253   -3.2898 H         1 <0>         0.4881
     68 H33         7.9967   -0.2346   -5.8893 H         1 <0>         0.4801
     69 H34         9.6064    0.3108   -5.5164 H         1 <0>         0.4806
     70 H35         7.3110   -1.5018   -2.5472 H         1 <0>         0.4689
     71 H36         1.6613   -1.3957   -2.7560 H         1 <0>         0.4505
     72 H37         0.5099   -2.9556    2.0129 H         1 <0>         0.4443
@<TRIPOS>BOND
     1    1    2 ar
     2    1    3 ar
     3    2    4 ar
     4    3    6 ar
     5    4    5 ar
     6    4   10 1
     7    5    6 ar
     8    5   24 1
     9    6   35 1
    10    7   15 1
    11    7   30 2
    12    7   34 1
    13    8   23 1
    14    8   25 am
    15    8   31 2
    16    9   26 1
    17    9   27 1
    18    9   28 1
    19   10   16 1
    20   11   13 1
    21   11   17 1
    22   12   15 1
    23   12   17 1
    24   13   25 1
    25   14   16 1
    26   14   24 1
    27   15   25 1
    28   16   18 1
    29   17   19 1
    30   20   21 1
    31   20   22 1
    32   21   23 1
    33   22   28 1
    34   23   29 1
    35   29   35 1
    36   32   35 2
    37   33   35 2
    38    1   36 1
    39    2   37 1
    40    3   38 1
    41   10   39 1
    42   10   40 1
    43   11   41 1
    44   11   42 1
    45   12   43 1
    46   12   44 1
    47   13   45 1
    48   13   46 1
    49   14   47 1
    50   14   48 1
    51   15   49 1
    52   16   50 1
    53   17   51 1
    54   18   52 1
    55   18   53 1
    56   18   54 1
    57   19   55 1
    58   19   56 1
    59   19   57 1
    60   20   58 1
    61   20   59 1
    62   21   60 1
    63   21   61 1
    64   22   62 1
    65   22   63 1
    66   23   64 1
    67   24   65 1
    68   26   66 1
    69   26   67 1
    70   27   68 1
    71   27   69 1
    72   28   70 1
    73   29   71 1
    74   34   72 1
@<TRIPOS>MOLECULE
1dwc_ligand_350
   72    74     0     0     0
SMALL
USER_CHARGES

mmff94s_NoEstat = 82.60
@<TRIPOS>ATOM
      1 C1          1.6845   -5.9778    0.1844 C.ar      1 <0>        -0.1945
      2 C2          0.6520   -5.4496    0.9566 C.ar      1 <0>        -0.0294
      3 C3          1.9606   -5.4374   -1.0681 C.ar      1 <0>        -0.0143
      4 C4         -0.1093   -4.3725    0.4806 C.ar      1 <0>        -0.1552
      5 C5          0.1450   -3.8386   -0.7984 C.ar      1 <0>         0.3076
      6 C6          1.1982   -4.3739   -1.5539 C.ar      1 <0>        -0.4908
      7 C7          1.8102   -1.5505    2.3702 C.2       1 <0>         0.5994
      8 C8          2.9466   -1.3973   -0.6457 C.2       1 <0>         0.6462
      9 C9          4.9528    0.1036   -6.2734 C.cat     1 <0>         0.6305
     10 C10        -1.2292   -3.8175    1.3278 C.3       1 <0>        -0.0319
     11 C11         4.4920   -3.4807    2.0801 C.3       1 <0>        -0.0918
     12 C12         4.1798   -1.0721    2.8769 C.3       1 <0>        -0.0841
     13 C13         4.5658   -2.7774    0.7291 C.3       1 <0>         0.0870
     14 C14        -1.7931   -2.3309   -0.6108 C.3       1 <0>         0.2023
     15 C15         3.1125   -1.0286    1.7861 C.3       1 <0>         0.0778
     16 C16        -1.5940   -2.3850    0.9075 C.3       1 <0>        -0.0746
     17 C17         4.5869   -2.5050    3.2643 C.3       1 <0>        -0.0681
     18 C18        -2.8431   -1.9049    1.6414 C.3       1 <0>        -0.0944
     19 C19         5.9882   -2.5079    3.8779 C.3       1 <0>        -0.0918
     20 C20         4.0666    0.0061   -3.0917 C.3       1 <0>        -0.1192
     21 C21         4.5564   -1.3488   -2.5679 C.3       1 <0>        -0.0916
     22 C22         5.1498    0.7503   -3.8628 C.3       1 <0>         0.1883
     23 C23         3.4544   -2.1251   -1.8653 C.3       1 <0>         0.1952
     24 N1         -0.5924   -2.7711   -1.2958 N.pl3     1 <0>        -0.7670
     25 N2          3.5192   -1.7560    0.5781 N.am      1 <0>        -0.4509
     26 N3          5.3941   -0.6210   -7.3756 N.pl3     1 <0>        -0.8477
     27 N4          3.8552    0.9464   -6.4114 N.pl3     1 <0>        -0.8633
     28 N5          5.5893    0.0019   -5.0317 N.pl3     1 <0>        -0.7419
     29 N6          2.2741   -2.2179   -2.7432 N.pl3     1 <0>        -0.8860
     30 O1          1.1684   -2.4905    1.9254 O.2       1 <0>        -0.5199
     31 O2          2.0685   -0.5400   -0.7710 O.2       1 <0>        -0.6131
     32 O3          2.6686   -4.5798   -3.6918 O.2       1 <0>        -0.6576
     33 O4          0.3811   -3.5494   -3.8650 O.2       1 <0>        -0.6482
     34 O5          1.4498   -0.8272    3.4584 O.3       1 <0>        -0.6303
     35 S1          1.6226   -3.7401   -3.1398 S.o2      1 <0>         1.5193
     36 H1          2.2754   -6.8081    0.5612 H         1 <0>         0.1426
     37 H2          0.4453   -5.8762    1.9353 H         1 <0>         0.1398
     38 H3          2.7663   -5.8367   -1.6758 H         1 <0>         0.1599
     39 H4         -2.0994   -4.4781    1.2245 H         1 <0>         0.0574
     40 H5         -0.9335   -3.8165    2.3842 H         1 <0>         0.0629
     41 H6          3.5311   -4.0088    2.1410 H         1 <0>         0.0614
     42 H7          5.2694   -4.2509    2.1463 H         1 <0>         0.0593
     43 H8          5.0641   -0.5305    2.5137 H         1 <0>         0.0841
     44 H9          3.8399   -0.5392    3.7741 H         1 <0>         0.0679
     45 H10         5.5312   -2.2723    0.6079 H         1 <0>         0.0826
     46 H11         4.4795   -3.5150   -0.0747 H         1 <0>         0.0383
     47 H12        -2.6365   -2.9647   -0.9116 H         1 <0>         0.0556
     48 H13        -2.0279   -1.3080   -0.9257 H         1 <0>         0.0415
     49 H14         2.9188    0.0160    1.5141 H         1 <0>         0.0851
     50 H15        -0.7654   -1.7164    1.1777 H         1 <0>         0.0639
     51 H16         3.9047   -2.8651    4.0450 H         1 <0>         0.0584
     52 H17        -2.9604   -0.8225    1.5328 H         1 <0>         0.0401
     53 H18        -3.7366   -2.3905    1.2379 H         1 <0>         0.0440
     54 H19        -2.7758   -2.1387    2.7081 H         1 <0>         0.0459
     55 H20         6.0310   -3.1862    4.7353 H         1 <0>         0.0456
     56 H21         6.7293   -2.8350    3.1425 H         1 <0>         0.0366
     57 H22         6.2606   -1.5045    4.2187 H         1 <0>         0.0474
     58 H23         3.1961   -0.1462   -3.7411 H         1 <0>         0.0800
     59 H24         3.7428    0.6319   -2.2522 H         1 <0>         0.0681
     60 H25         5.4094   -1.1917   -1.8946 H         1 <0>         0.0740
     61 H26         4.9285   -1.9502   -3.4070 H         1 <0>         0.0631
     62 H27         6.0226    0.9442   -3.2312 H         1 <0>         0.0970
     63 H28         4.7647    1.7133   -4.2128 H         1 <0>         0.0725
     64 H29         3.7703   -3.1244   -1.5692 H         1 <0>         0.0839
     65 H30        -0.4235   -2.4715   -2.2481 H         1 <0>         0.4531
     66 H31         6.1929   -1.2474   -7.3223 H         1 <0>         0.4798
     67 H32         4.9258   -0.5407   -8.2753 H         1 <0>         0.4881
     68 H33         3.5064    1.4907   -5.6261 H         1 <0>         0.4801
     69 H34         3.3717    1.0398   -7.3014 H         1 <0>         0.4806
     70 H35         6.3922   -0.6250   -4.9615 H         1 <0>         0.4689
     71 H36         1.6613   -1.3957   -2.7560 H         1 <0>         0.4505
     72 H37         0.6092   -1.1478    3.8495 H         1 <0>         0.4443
@<TRIPOS>BOND
     1    1    2 ar
     2    1    3 ar
     3    2    4 ar
     4    3    6 ar
     5    4    5 ar
     6    4   10 1
     7    5    6 ar
     8    5   24 1
     9    6   35 1
    10    7   15 1
    11    7   30 2
    12    7   34 1
    13    8   23 1
    14    8   25 am
    15    8   31 2
    16    9   26 1
    17    9   27 1
    18    9   28 1
    19   10   16 1
    20   11   13 1
    21   11   17 1
    22   12   15 1
    23   12   17 1
    24   13   25 1
    25   14   16 1
    26   14   24 1
    27   15   25 1
    28   16   18 1
    29   17   19 1
    30   20   21 1
    31   20   22 1
    32   21   23 1
    33   22   28 1
    34   23   29 1
    35   29   35 1
    36   32   35 2
    37   33   35 2
    38    1   36 1
    39    2   37 1
    40    3   38 1
    41   10   39 1
    42   10   40 1
    43   11   41 1
    44   11   42 1
    45   12   43 1
    46   12   44 1
    47   13   45 1
    48   13   46 1
    49   14   47 1
    50   14   48 1
    51   15   49 1
    52   16   50 1
    53   17   51 1
    54   18   52 1
    55   18   53 1
    56   18   54 1
    57   19   55 1
    58   19   56 1
    59   19   57 1
    60   20   58 1
    61   20   59 1
    62   21   60 1
    63   21   61 1
    64   22   62 1
    65   22   63 1
    66   23   64 1
    67   24   65 1
    68   26   66 1
    69   26   67 1
    70   27   68 1
    71   27   69 1
    72   28   70 1
    73   29   71 1
    74   34   72 1
@<TRIPOS>MOLECULE
1dwc_ligand_351
   72    74     0     0     0
SMALL
USER_CHARGES

mmff94s_NoEstat = 82.63
@<TRIPOS>ATOM
      1 C1          1.9247   -5.6076   -5.8968 C.ar      1 <0>        -0.1945
      2 C2          2.8785   -6.5393   -5.4922 C.ar      1 <0>        -0.0294
      3 C3          1.4180   -4.6909   -4.9805 C.ar      1 <0>        -0.0143
      4 C4          3.3347   -6.5563   -4.1664 C.ar      1 <0>        -0.1552
      5 C5          2.8054   -5.6505   -3.2257 C.ar      1 <0>         0.3076
      6 C6          1.8576   -4.7107   -3.6559 C.ar      1 <0>        -0.4908
      7 C7          2.7064   -0.1192    2.3072 C.2       1 <0>         0.5994
      8 C8          2.9466   -1.3973   -0.6457 C.2       1 <0>         0.6462
      9 C9          5.5099    2.9416   -5.0187 C.cat     1 <0>         0.6305
     10 C10         4.3633   -7.5778   -3.7437 C.3       1 <0>        -0.0319
     11 C11         5.2891   -2.1972    2.1884 C.3       1 <0>        -0.0918
     12 C12         5.0977    0.3338    1.8863 C.3       1 <0>        -0.0841
     13 C13         4.9490   -2.1654    0.7022 C.3       1 <0>         0.0870
     14 C14         4.0746   -6.7191   -1.4059 C.3       1 <0>         0.2023
     15 C15         3.7674   -0.0162    1.2240 C.3       1 <0>         0.0778
     16 C16         5.0972   -7.1398   -2.4665 C.3       1 <0>        -0.0746
     17 C17         5.6645   -0.8131    2.7422 C.3       1 <0>        -0.0681
     18 C18         5.9974   -8.2574   -1.9467 C.3       1 <0>        -0.0944
     19 C19         7.1799   -0.6635    2.8882 C.3       1 <0>        -0.0918
     20 C20         4.0666    0.0061   -3.0917 C.3       1 <0>        -0.1192
     21 C21         4.5564   -1.3488   -2.5679 C.3       1 <0>        -0.0916
     22 C22         5.1498    0.7503   -3.8628 C.3       1 <0>         0.1883
     23 C23         3.4544   -2.1251   -1.8653 C.3       1 <0>         0.1952
     24 N1          3.2389   -5.6437   -1.9056 N.pl3     1 <0>        -0.7670
     25 N2          3.8547   -1.2301    0.4039 N.am      1 <0>        -0.4509
     26 N3          5.0373    4.1732   -5.4600 N.pl3     1 <0>        -0.8477
     27 N4          6.8343    2.5959   -5.2649 N.pl3     1 <0>        -0.8633
     28 N5          4.6819    2.0459   -4.3336 N.pl3     1 <0>        -0.7419
     29 N6          2.2741   -2.2179   -2.7432 N.pl3     1 <0>        -0.8860
     30 O1          2.4216    0.7685    3.0973 O.2       1 <0>        -0.5199
     31 O2          1.7818   -0.9917   -0.6208 O.2       1 <0>        -0.6131
     32 O3         -0.1165   -3.1121   -3.0880 O.2       1 <0>        -0.6576
     33 O4          1.2896   -4.0436   -1.2226 O.2       1 <0>        -0.6482
     34 O5          2.1141   -1.3382    2.2827 O.3       1 <0>        -0.6303
     35 S1          1.1775   -3.5081   -2.5659 S.o2      1 <0>         1.5193
     36 H1          1.5799   -5.5947   -6.9271 H         1 <0>         0.1426
     37 H2          3.2711   -7.2499   -6.2157 H         1 <0>         0.1398
     38 H3          0.6792   -3.9566   -5.2858 H         1 <0>         0.1599
     39 H4          3.8515   -8.5347   -3.5798 H         1 <0>         0.0574
     40 H5          5.0968   -7.7238   -4.5461 H         1 <0>         0.0629
     41 H6          4.4096   -2.5633    2.7347 H         1 <0>         0.0614
     42 H7          6.0897   -2.9223    2.3757 H         1 <0>         0.0593
     43 H8          5.8186    0.5861    1.0964 H         1 <0>         0.0841
     44 H9          4.9971    1.2321    2.5089 H         1 <0>         0.0679
     45 H10         5.8170   -1.8466    0.1132 H         1 <0>         0.0826
     46 H11         4.6769   -3.1705    0.3656 H         1 <0>         0.0383
     47 H12         3.4420   -7.5692   -1.1218 H         1 <0>         0.0556
     48 H13         4.5874   -6.3794   -0.4991 H         1 <0>         0.0415
     49 H14         3.4560    0.8159    0.5811 H         1 <0>         0.0851
     50 H15         5.7334   -6.2764   -2.7038 H         1 <0>         0.0639
     51 H16         5.2454   -0.7368    3.7536 H         1 <0>         0.0584
     52 H17         6.6935   -7.8722   -1.1957 H         1 <0>         0.0401
     53 H18         5.3996   -9.0505   -1.4878 H         1 <0>         0.0440
     54 H19         6.5793   -8.6936   -2.7641 H         1 <0>         0.0459
     55 H20         7.4927   -0.8988    3.9099 H         1 <0>         0.0456
     56 H21         7.7008   -1.3400    2.2040 H         1 <0>         0.0366
     57 H22         7.4886    0.3613    2.6609 H         1 <0>         0.0474
     58 H23         3.1961   -0.1462   -3.7411 H         1 <0>         0.0800
     59 H24         3.7428    0.6319   -2.2522 H         1 <0>         0.0681
     60 H25         5.4094   -1.1917   -1.8946 H         1 <0>         0.0740
     61 H26         4.9285   -1.9502   -3.4070 H         1 <0>         0.0631
     62 H27         5.4874    0.1718   -4.7286 H         1 <0>         0.0970
     63 H28         6.0148    0.9268   -3.2156 H         1 <0>         0.0725
     64 H29         3.7703   -3.1244   -1.5692 H         1 <0>         0.0839
     65 H30         2.7759   -5.0262   -1.2500 H         1 <0>         0.4531
     66 H31         4.0769    4.4674   -5.3045 H         1 <0>         0.4798
     67 H32         5.6462    4.8184   -5.9581 H         1 <0>         0.4881
     68 H33         7.2124    1.7035   -4.9563 H         1 <0>         0.4801
     69 H34         7.4600    3.2272   -5.7595 H         1 <0>         0.4806
     70 H35         3.7146    2.3280   -4.1678 H         1 <0>         0.4689
     71 H36         1.9407   -1.3323   -3.1385 H         1 <0>         0.4505
     72 H37         1.4264   -1.4253    2.9768 H         1 <0>         0.4443
@<TRIPOS>BOND
     1    1    2 ar
     2    1    3 ar
     3    2    4 ar
     4    3    6 ar
     5    4    5 ar
     6    4   10 1
     7    5    6 ar
     8    5   24 1
     9    6   35 1
    10    7   15 1
    11    7   30 2
    12    7   34 1
    13    8   23 1
    14    8   25 am
    15    8   31 2
    16    9   26 1
    17    9   27 1
    18    9   28 1
    19   10   16 1
    20   11   13 1
    21   11   17 1
    22   12   15 1
    23   12   17 1
    24   13   25 1
    25   14   16 1
    26   14   24 1
    27   15   25 1
    28   16   18 1
    29   17   19 1
    30   20   21 1
    31   20   22 1
    32   21   23 1
    33   22   28 1
    34   23   29 1
    35   29   35 1
    36   32   35 2
    37   33   35 2
    38    1   36 1
    39    2   37 1
    40    3   38 1
    41   10   39 1
    42   10   40 1
    43   11   41 1
    44   11   42 1
    45   12   43 1
    46   12   44 1
    47   13   45 1
    48   13   46 1
    49   14   47 1
    50   14   48 1
    51   15   49 1
    52   16   50 1
    53   17   51 1
    54   18   52 1
    55   18   53 1
    56   18   54 1
    57   19   55 1
    58   19   56 1
    59   19   57 1
    60   20   58 1
    61   20   59 1
    62   21   60 1
    63   21   61 1
    64   22   62 1
    65   22   63 1
    66   23   64 1
    67   24   65 1
    68   26   66 1
    69   26   67 1
    70   27   68 1
    71   27   69 1
    72   28   70 1
    73   29   71 1
    74   34   72 1
@<TRIPOS>MOLECULE
1dwc_ligand_352
   72    74     0     0     0
SMALL
USER_CHARGES

mmff94s_NoEstat = 82.72
@<TRIPOS>ATOM
      1 C1          0.6009   -5.4402   -0.5450 C.ar      1 <0>        -0.1945
      2 C2          1.9177   -5.1745   -0.9146 C.ar      1 <0>        -0.0294
      3 C3          0.2538   -5.4826    0.8019 C.ar      1 <0>        -0.0143
      4 C4          2.8980   -4.9531    0.0635 C.ar      1 <0>        -0.1552
      5 C5          2.5489   -4.9659    1.4281 C.ar      1 <0>         0.3076
      6 C6          1.2217   -5.2505    1.7807 C.ar      1 <0>        -0.4908
      7 C7          0.0474   -1.6003   -0.0563 C.2       1 <0>         0.5994
      8 C8          0.8654   -1.4427    3.2413 C.2       1 <0>         0.6462
      9 C9         -4.4066   -3.3472    6.8497 C.cat     1 <0>         0.6305
     10 C10         4.3179   -4.6587   -0.3572 C.3       1 <0>        -0.0319
     11 C11         2.7802    0.7752    1.0208 C.3       1 <0>        -0.0918
     12 C12         2.5085   -1.4277   -0.1368 C.3       1 <0>        -0.0841
     13 C13         1.5404    0.4804    1.8554 C.3       1 <0>         0.0870
     14 C14         4.8245   -4.2772    2.0742 C.3       1 <0>         0.2023
     15 C15         1.3165   -1.7600    0.7646 C.3       1 <0>         0.0778
     16 C16         5.3306   -4.9077    0.7723 C.3       1 <0>        -0.0746
     17 C17         2.7020    0.0809   -0.3413 C.3       1 <0>        -0.0681
     18 C18         5.6414   -6.3991    0.9431 C.3       1 <0>        -0.0944
     19 C19         3.9570    0.3602   -1.1659 C.3       1 <0>        -0.0918
     20 C20        -1.0866   -2.1427    5.4567 C.3       1 <0>        -0.1192
     21 C21        -1.3133   -2.4479    3.9716 C.3       1 <0>        -0.0916
     22 C22        -2.3970   -1.9935    6.2196 C.3       1 <0>         0.1883
     23 C23        -0.0078   -2.6730    3.2260 C.3       1 <0>         0.1952
     24 N1          3.4999   -4.7575    2.4193 N.pl3     1 <0>        -0.7670
     25 N2          1.2915   -0.9578    1.9994 N.am      1 <0>        -0.4509
     26 N3         -5.1439   -4.5252    6.7900 N.pl3     1 <0>        -0.8477
     27 N4         -4.8938   -2.2796    7.5959 N.pl3     1 <0>        -0.8633
     28 N5         -3.1876   -3.2152    6.1760 N.pl3     1 <0>        -0.7419
     29 N6          0.7961   -3.6905    3.9267 N.pl3     1 <0>        -0.8860
     30 O1         -0.1814   -2.1703   -1.1128 O.2       1 <0>        -0.5199
     31 O2          1.1650   -0.9321    4.3240 O.2       1 <0>        -0.6131
     32 O3         -0.6876   -5.7475    3.4786 O.2       1 <0>        -0.6576
     33 O4          1.7036   -6.0834    4.1813 O.2       1 <0>        -0.6482
     34 O5         -0.8039   -0.7319    0.5424 O.3       1 <0>        -0.6303
     35 S1          0.6998   -5.3249    3.4597 S.o2      1 <0>         1.5193
     36 H1         -0.1532   -5.6173   -1.3071 H         1 <0>         0.1426
     37 H2          2.1805   -5.1462   -1.9695 H         1 <0>         0.1398
     38 H3         -0.7676   -5.6946    1.1020 H         1 <0>         0.1599
     39 H4          4.5872   -5.2635   -1.2316 H         1 <0>         0.0574
     40 H5          4.3648   -3.6041   -0.6574 H         1 <0>         0.0629
     41 H6          2.8818    1.8586    0.8858 H         1 <0>         0.0614
     42 H7          3.6725    0.4327    1.5603 H         1 <0>         0.0593
     43 H8          3.4165   -1.8382    0.3259 H         1 <0>         0.0841
     44 H9          2.4035   -1.9216   -1.1111 H         1 <0>         0.0679
     45 H10         1.6443    0.9520    2.8381 H         1 <0>         0.0826
     46 H11         0.6509    0.9155    1.3839 H         1 <0>         0.0383
     47 H12         5.5138   -4.4958    2.8973 H         1 <0>         0.0556
     48 H13         4.7892   -3.1861    1.9666 H         1 <0>         0.0415
     49 H14         1.3647   -2.8230    1.0210 H         1 <0>         0.0851
     50 H15         6.2762   -4.4249    0.4964 H         1 <0>         0.0639
     51 H16         1.8454    0.4816   -0.8972 H         1 <0>         0.0584
     52 H17         4.9808   -7.0038    0.3146 H         1 <0>         0.0401
     53 H18         6.6765   -6.6112    0.6589 H         1 <0>         0.0440
     54 H19         5.5005   -6.7043    1.9843 H         1 <0>         0.0459
     55 H20         4.2296   -0.5171   -1.7602 H         1 <0>         0.0456
     56 H21         3.7904    1.1997   -1.8474 H         1 <0>         0.0366
     57 H22         4.7987    0.6086   -0.5125 H         1 <0>         0.0474
     58 H23        -0.4913   -2.9455    5.9081 H         1 <0>         0.0800
     59 H24        -0.5143   -1.2136    5.5600 H         1 <0>         0.0681
     60 H25        -1.8840   -1.6286    3.5148 H         1 <0>         0.0740
     61 H26        -1.9315   -3.3495    3.8758 H         1 <0>         0.0631
     62 H27        -3.0022   -1.1781    5.8107 H         1 <0>         0.0970
     63 H28        -2.1935   -1.7693    7.2716 H         1 <0>         0.0725
     64 H29        -0.1638   -2.9774    2.1921 H         1 <0>         0.0839
     65 H30         3.1862   -4.7016    3.3805 H         1 <0>         0.4531
     66 H31        -4.8283   -5.3304    6.2558 H         1 <0>         0.4798
     67 H32        -6.0298   -4.6126    7.2825 H         1 <0>         0.4881
     68 H33        -4.3804   -1.4040    7.6609 H         1 <0>         0.4801
     69 H34        -5.7763   -2.3468    8.0972 H         1 <0>         0.4806
     70 H35        -2.8559   -4.0162    5.6365 H         1 <0>         0.4689
     71 H36         1.6533   -3.3509    4.3757 H         1 <0>         0.4505
     72 H37        -1.6296   -0.6137    0.0262 H         1 <0>         0.4443
@<TRIPOS>BOND
     1    1    2 ar
     2    1    3 ar
     3    2    4 ar
     4    3    6 ar
     5    4    5 ar
     6    4   10 1
     7    5    6 ar
     8    5   24 1
     9    6   35 1
    10    7   15 1
    11    7   30 2
    12    7   34 1
    13    8   23 1
    14    8   25 am
    15    8   31 2
    16    9   26 1
    17    9   27 1
    18    9   28 1
    19   10   16 1
    20   11   13 1
    21   11   17 1
    22   12   15 1
    23   12   17 1
    24   13   25 1
    25   14   16 1
    26   14   24 1
    27   15   25 1
    28   16   18 1
    29   17   19 1
    30   20   21 1
    31   20   22 1
    32   21   23 1
    33   22   28 1
    34   23   29 1
    35   29   35 1
    36   32   35 2
    37   33   35 2
    38    1   36 1
    39    2   37 1
    40    3   38 1
    41   10   39 1
    42   10   40 1
    43   11   41 1
    44   11   42 1
    45   12   43 1
    46   12   44 1
    47   13   45 1
    48   13   46 1
    49   14   47 1
    50   14   48 1
    51   15   49 1
    52   16   50 1
    53   17   51 1
    54   18   52 1
    55   18   53 1
    56   18   54 1
    57   19   55 1
    58   19   56 1
    59   19   57 1
    60   20   58 1
    61   20   59 1
    62   21   60 1
    63   21   61 1
    64   22   62 1
    65   22   63 1
    66   23   64 1
    67   24   65 1
    68   26   66 1
    69   26   67 1
    70   27   68 1
    71   27   69 1
    72   28   70 1
    73   29   71 1
    74   34   72 1
@<TRIPOS>MOLECULE
1dwc_ligand_353
   72    74     0     0     0
SMALL
USER_CHARGES

mmff94s_NoEstat = 82.76
@<TRIPOS>ATOM
      1 C1          7.0566   -1.8909   -5.1883 C.ar      1 <0>        -0.1945
      2 C2          7.7758   -3.0566   -5.4429 C.ar      1 <0>        -0.0294
      3 C3          6.5672   -1.6434   -3.9093 C.ar      1 <0>        -0.0143
      4 C4          8.0069   -3.9856   -4.4181 C.ar      1 <0>        -0.1552
      5 C5          7.5396   -3.7287   -3.1142 C.ar      1 <0>         0.3076
      6 C6          6.8044   -2.5574   -2.8813 C.ar      1 <0>        -0.4908
      7 C7          3.7685    1.5685    0.3235 C.2       1 <0>         0.5994
      8 C8          2.9466   -1.3973   -0.6457 C.2       1 <0>         0.6462
      9 C9          0.5183   -3.2916   -5.9472 C.cat     1 <0>         0.6305
     10 C10         8.7955   -5.2391   -4.7118 C.3       1 <0>        -0.0319
     11 C11         1.8611    1.7587   -2.3835 C.3       1 <0>        -0.0918
     12 C12         1.3294    1.8958    0.1130 C.3       1 <0>        -0.0841
     13 C13         1.7075    0.2690   -2.0963 C.3       1 <0>         0.0870
     14 C14         8.6599   -5.7478   -2.2549 C.3       1 <0>         0.2023
     15 C15         2.4335    0.8481    0.2329 C.3       1 <0>         0.0778
     16 C16         8.5627   -6.3405   -3.6647 C.3       1 <0>        -0.0746
     17 C17         1.3508    2.6418   -1.2332 C.3       1 <0>        -0.0681
     18 C18         7.2327   -7.0694   -3.8876 C.3       1 <0>        -0.0944
     19 C19        -0.0342    3.2135   -1.5417 C.3       1 <0>        -0.0918
     20 C20         2.8965   -3.7759   -3.7050 C.3       1 <0>        -0.1192
     21 C21         2.4114   -3.0756   -2.4306 C.3       1 <0>        -0.0916
     22 C22         1.8232   -4.6695   -4.3142 C.3       1 <0>         0.1883
     23 C23         3.4544   -2.1251   -1.8653 C.3       1 <0>         0.1952
     24 N1          7.7469   -4.6339   -2.0809 N.pl3     1 <0>        -0.7670
     25 N2          2.3949   -0.1309   -0.8598 N.am      1 <0>        -0.4509
     26 N3         -0.6216   -2.5717   -6.2897 N.pl3     1 <0>        -0.8477
     27 N4          1.5546   -3.3989   -6.8683 N.pl3     1 <0>        -0.8633
     28 N5          0.6428   -3.9085   -4.6977 N.pl3     1 <0>        -0.7419
     29 N6          4.6097   -2.8934   -1.3678 N.pl3     1 <0>        -0.8860
     30 O1          4.0589    2.4051    1.1656 O.2       1 <0>        -0.5199
     31 O2          3.0377   -1.9312    0.4627 O.2       1 <0>        -0.6131
     32 O3          6.9529   -2.8526   -0.2994 O.2       1 <0>        -0.6576
     33 O4          5.9925   -0.7285   -1.2427 O.2       1 <0>        -0.6482
     34 O5          4.6017    1.1585   -0.6640 O.3       1 <0>        -0.6303
     35 S1          6.1490   -2.1694   -1.2948 S.o2      1 <0>         1.5193
     36 H1          6.8751   -1.1776   -5.9878 H         1 <0>         0.1426
     37 H2          8.1519   -3.2432   -6.4460 H         1 <0>         0.1398
     38 H3          6.0004   -0.7415   -3.7005 H         1 <0>         0.1599
     39 H4          8.5429   -5.6209   -5.7085 H         1 <0>         0.0574
     40 H5          9.8593   -4.9693   -4.7209 H         1 <0>         0.0629
     41 H6          2.9275    1.9711   -2.5379 H         1 <0>         0.0614
     42 H7          1.3587    2.0144   -3.3237 H         1 <0>         0.0593
     43 H8          0.3614    1.3894    0.2306 H         1 <0>         0.0841
     44 H9          1.3961    2.6253    0.9302 H         1 <0>         0.0679
     45 H10         0.6501    0.0044   -1.9791 H         1 <0>         0.0826
     46 H11         2.0979   -0.3101   -2.9388 H         1 <0>         0.0383
     47 H12         8.4420   -6.5143   -1.5028 H         1 <0>         0.0556
     48 H13         9.6836   -5.3993   -2.0705 H         1 <0>         0.0415
     49 H14         2.3194    0.3128    1.1832 H         1 <0>         0.0851
     50 H15         9.3512   -7.0944   -3.7804 H         1 <0>         0.0639
     51 H16         2.0299    3.4998   -1.1486 H         1 <0>         0.0584
     52 H17         6.6492   -6.5740   -4.6693 H         1 <0>         0.0401
     53 H18         7.4085   -8.1053   -4.1930 H         1 <0>         0.0440
     54 H19         6.6400   -7.0772   -2.9680 H         1 <0>         0.0459
     55 H20         0.0409    4.0371   -2.2580 H         1 <0>         0.0456
     56 H21        -0.6818    2.4425   -1.9698 H         1 <0>         0.0366
     57 H22        -0.5055    3.5921   -0.6298 H         1 <0>         0.0474
     58 H23         3.2051   -3.0234   -4.4407 H         1 <0>         0.0800
     59 H24         3.7751   -4.3904   -3.4776 H         1 <0>         0.0681
     60 H25         2.1309   -3.8309   -1.6847 H         1 <0>         0.0740
     61 H26         1.5011   -2.5046   -2.6534 H         1 <0>         0.0631
     62 H27         1.5147   -5.4515   -3.6131 H         1 <0>         0.0970
     63 H28         2.2095   -5.1562   -5.2154 H         1 <0>         0.0725
     64 H29         3.7902   -1.3903   -2.5956 H         1 <0>         0.0839
     65 H30         7.4582   -4.3697   -1.1469 H         1 <0>         0.4531
     66 H31        -1.4045   -2.4682   -5.6497 H         1 <0>         0.4798
     67 H32        -0.7043   -2.1267   -7.2008 H         1 <0>         0.4881
     68 H33         2.4019   -3.9178   -6.6506 H         1 <0>         0.4801
     69 H34         1.4928   -2.9601   -7.7839 H         1 <0>         0.4806
     70 H35        -0.1346   -3.8119   -4.0427 H         1 <0>         0.4689
     71 H36         4.3912   -3.6637   -0.7270 H         1 <0>         0.4505
     72 H37         5.4695    1.6141   -0.6238 H         1 <0>         0.4443
@<TRIPOS>BOND
     1    1    2 ar
     2    1    3 ar
     3    2    4 ar
     4    3    6 ar
     5    4    5 ar
     6    4   10 1
     7    5    6 ar
     8    5   24 1
     9    6   35 1
    10    7   15 1
    11    7   30 2
    12    7   34 1
    13    8   23 1
    14    8   25 am
    15    8   31 2
    16    9   26 1
    17    9   27 1
    18    9   28 1
    19   10   16 1
    20   11   13 1
    21   11   17 1
    22   12   15 1
    23   12   17 1
    24   13   25 1
    25   14   16 1
    26   14   24 1
    27   15   25 1
    28   16   18 1
    29   17   19 1
    30   20   21 1
    31   20   22 1
    32   21   23 1
    33   22   28 1
    34   23   29 1
    35   29   35 1
    36   32   35 2
    37   33   35 2
    38    1   36 1
    39    2   37 1
    40    3   38 1
    41   10   39 1
    42   10   40 1
    43   11   41 1
    44   11   42 1
    45   12   43 1
    46   12   44 1
    47   13   45 1
    48   13   46 1
    49   14   47 1
    50   14   48 1
    51   15   49 1
    52   16   50 1
    53   17   51 1
    54   18   52 1
    55   18   53 1
    56   18   54 1
    57   19   55 1
    58   19   56 1
    59   19   57 1
    60   20   58 1
    61   20   59 1
    62   21   60 1
    63   21   61 1
    64   22   62 1
    65   22   63 1
    66   23   64 1
    67   24   65 1
    68   26   66 1
    69   26   67 1
    70   27   68 1
    71   27   69 1
    72   28   70 1
    73   29   71 1
    74   34   72 1
@<TRIPOS>MOLECULE
1dwc_ligand_354
   72    74     0     0     0
SMALL
USER_CHARGES

mmff94s_NoEstat = 82.78
@<TRIPOS>ATOM
      1 C1          5.9134   -3.9428   -5.7023 C.ar      1 <0>        -0.1945
      2 C2          6.3871   -5.2494   -5.6043 C.ar      1 <0>        -0.0294
      3 C3          5.8562   -3.1390   -4.5677 C.ar      1 <0>        -0.0143
      4 C4          6.8037   -5.7618   -4.3671 C.ar      1 <0>        -0.1552
      5 C5          6.7759   -4.9454   -3.2195 C.ar      1 <0>         0.3076
      6 C6          6.2812   -3.6382   -3.3354 C.ar      1 <0>        -0.4908
      7 C7          2.8752    1.3115    1.1058 C.2       1 <0>         0.5994
      8 C8          2.9466   -1.3973   -0.6457 C.2       1 <0>         0.6462
      9 C9          0.5183   -3.2916   -5.9472 C.cat     1 <0>         0.6305
     10 C10         7.3217   -7.1776   -4.2827 C.3       1 <0>        -0.0319
     11 C11         2.3641    2.0271   -2.0925 C.3       1 <0>        -0.0918
     12 C12         0.7649    1.6065   -0.1433 C.3       1 <0>        -0.0841
     13 C13         2.2856    0.5067   -2.1800 C.3       1 <0>         0.0870
     14 C14         7.8624   -6.7013   -1.8756 C.3       1 <0>         0.2023
     15 C15         1.8211    0.5897    0.2827 C.3       1 <0>         0.0778
     16 C16         7.2853   -7.7338   -2.8499 C.3       1 <0>        -0.0746
     17 C17         1.2898    2.6259   -1.1701 C.3       1 <0>        -0.0681
     18 C18         5.8749   -8.1764   -2.4440 C.3       1 <0>        -0.0944
     19 C19         0.1276    3.2108   -1.9746 C.3       1 <0>        -0.0918
     20 C20         2.8965   -3.7759   -3.7050 C.3       1 <0>        -0.1192
     21 C21         2.4114   -3.0756   -2.4306 C.3       1 <0>        -0.0916
     22 C22         1.8232   -4.6695   -4.3142 C.3       1 <0>         0.1883
     23 C23         3.4544   -2.1251   -1.8653 C.3       1 <0>         0.1952
     24 N1          7.1751   -5.4280   -1.9795 N.pl3     1 <0>        -0.7670
     25 N2          2.3949   -0.1309   -0.8598 N.am      1 <0>        -0.4509
     26 N3         -0.6216   -2.5717   -6.2897 N.pl3     1 <0>        -0.8477
     27 N4          1.5546   -3.3989   -6.8683 N.pl3     1 <0>        -0.8633
     28 N5          0.6428   -3.9085   -4.6977 N.pl3     1 <0>        -0.7419
     29 N6          4.6097   -2.8934   -1.3678 N.pl3     1 <0>        -0.8860
     30 O1          2.6539    1.9546    2.1211 O.2       1 <0>        -0.5199
     31 O2          3.0377   -1.9312    0.4627 O.2       1 <0>        -0.6131
     32 O3          7.1528   -2.9869   -0.9708 O.2       1 <0>        -0.6576
     33 O4          6.2050   -1.2028   -2.4684 O.2       1 <0>        -0.6482
     34 O5          4.1045    1.1486    0.5584 O.3       1 <0>        -0.6303
     35 S1          6.1736   -2.5573   -1.9508 S.o2      1 <0>         1.5193
     36 H1          5.5859   -3.5531   -6.6623 H         1 <0>         0.1426
     37 H2          6.4255   -5.8713   -6.4955 H         1 <0>         0.1398
     38 H3          5.4834   -2.1215   -4.6308 H         1 <0>         0.1599
     39 H4          6.7434   -7.8328   -4.9456 H         1 <0>         0.0574
     40 H5          8.3586   -7.1752   -4.6424 H         1 <0>         0.0629
     41 H6          3.3521    2.2982   -1.6971 H         1 <0>         0.0614
     42 H7          2.3049    2.4652   -3.0956 H         1 <0>         0.0593
     43 H8         -0.0830    1.0592   -0.5778 H         1 <0>         0.0841
     44 H9          0.3696    2.1440    0.7282 H         1 <0>         0.0679
     45 H10         1.3285    0.1928   -2.6129 H         1 <0>         0.0826
     46 H11         3.0787    0.1346   -2.8358 H         1 <0>         0.0383
     47 H12         7.7911   -7.0673   -0.8453 H         1 <0>         0.0556
     48 H13         8.9275   -6.5478   -2.0884 H         1 <0>         0.0415
     49 H14         1.3638   -0.1412    0.9605 H         1 <0>         0.0851
     50 H15         7.9128   -8.6330   -2.8162 H         1 <0>         0.0639
     51 H16         1.7477    3.4645   -0.6301 H         1 <0>         0.0584
     52 H17         5.1466   -7.8868   -3.2074 H         1 <0>         0.0401
     53 H18         5.8329   -9.2629   -2.3224 H         1 <0>         0.0440
     54 H19         5.5841   -7.7122   -1.4969 H         1 <0>         0.0459
     55 H20         0.4103    4.1714   -2.4154 H         1 <0>         0.0456
     56 H21        -0.1604    2.5322   -2.7831 H         1 <0>         0.0366
     57 H22        -0.7432    3.3698   -1.3317 H         1 <0>         0.0474
     58 H23         3.2051   -3.0234   -4.4407 H         1 <0>         0.0800
     59 H24         3.7751   -4.3904   -3.4776 H         1 <0>         0.0681
     60 H25         2.1309   -3.8309   -1.6847 H         1 <0>         0.0740
     61 H26         1.5011   -2.5046   -2.6534 H         1 <0>         0.0631
     62 H27         1.5147   -5.4515   -3.6131 H         1 <0>         0.0970
     63 H28         2.2095   -5.1562   -5.2154 H         1 <0>         0.0725
     64 H29         3.7902   -1.3903   -2.5956 H         1 <0>         0.0839
     65 H30         7.2080   -4.7810   -1.2011 H         1 <0>         0.4531
     66 H31        -1.4045   -2.4682   -5.6497 H         1 <0>         0.4798
     67 H32        -0.7043   -2.1267   -7.2008 H         1 <0>         0.4881
     68 H33         2.4019   -3.9178   -6.6506 H         1 <0>         0.4801
     69 H34         1.4928   -2.9601   -7.7839 H         1 <0>         0.4806
     70 H35        -0.1346   -3.8119   -4.0427 H         1 <0>         0.4689
     71 H36         4.5044   -3.3037   -0.4338 H         1 <0>         0.4505
     72 H37         4.7996    1.6094    1.0749 H         1 <0>         0.4443
@<TRIPOS>BOND
     1    1    2 ar
     2    1    3 ar
     3    2    4 ar
     4    3    6 ar
     5    4    5 ar
     6    4   10 1
     7    5    6 ar
     8    5   24 1
     9    6   35 1
    10    7   15 1
    11    7   30 2
    12    7   34 1
    13    8   23 1
    14    8   25 am
    15    8   31 2
    16    9   26 1
    17    9   27 1
    18    9   28 1
    19   10   16 1
    20   11   13 1
    21   11   17 1
    22   12   15 1
    23   12   17 1
    24   13   25 1
    25   14   16 1
    26   14   24 1
    27   15   25 1
    28   16   18 1
    29   17   19 1
    30   20   21 1
    31   20   22 1
    32   21   23 1
    33   22   28 1
    34   23   29 1
    35   29   35 1
    36   32   35 2
    37   33   35 2
    38    1   36 1
    39    2   37 1
    40    3   38 1
    41   10   39 1
    42   10   40 1
    43   11   41 1
    44   11   42 1
    45   12   43 1
    46   12   44 1
    47   13   45 1
    48   13   46 1
    49   14   47 1
    50   14   48 1
    51   15   49 1
    52   16   50 1
    53   17   51 1
    54   18   52 1
    55   18   53 1
    56   18   54 1
    57   19   55 1
    58   19   56 1
    59   19   57 1
    60   20   58 1
    61   20   59 1
    62   21   60 1
    63   21   61 1
    64   22   62 1
    65   22   63 1
    66   23   64 1
    67   24   65 1
    68   26   66 1
    69   26   67 1
    70   27   68 1
    71   27   69 1
    72   28   70 1
    73   29   71 1
    74   34   72 1
@<TRIPOS>MOLECULE
1dwc_ligand_355
   72    74     0     0     0
SMALL
USER_CHARGES

mmff94s_NoEstat = 82.82
@<TRIPOS>ATOM
      1 C1          0.0343   -4.8290    0.3749 C.ar      1 <0>        -0.1945
      2 C2         -1.2858   -4.3914    0.2897 C.ar      1 <0>        -0.0294
      3 C3          0.9049   -4.6189   -0.6903 C.ar      1 <0>        -0.0143
      4 C4         -1.7422   -3.7361   -0.8629 C.ar      1 <0>        -0.1552
      5 C5         -0.8751   -3.5454   -1.9570 C.ar      1 <0>         0.3076
      6 C6          0.4539   -3.9792   -1.8460 C.ar      1 <0>        -0.4908
      7 C7          1.8102   -1.5505    2.3702 C.2       1 <0>         0.5994
      8 C8          2.9466   -1.3973   -0.6457 C.2       1 <0>         0.6462
      9 C9          6.8021   -5.4466   -4.4355 C.cat     1 <0>         0.6305
     10 C10        -3.1781   -3.2753   -0.9407 C.3       1 <0>        -0.0319
     11 C11         4.4920   -3.4807    2.0801 C.3       1 <0>        -0.0918
     12 C12         4.1798   -1.0721    2.8769 C.3       1 <0>        -0.0841
     13 C13         4.5658   -2.7774    0.7291 C.3       1 <0>         0.0870
     14 C14        -2.7070   -2.6116   -3.3122 C.3       1 <0>         0.2023
     15 C15         3.1125   -1.0286    1.7861 C.3       1 <0>         0.0778
     16 C16        -3.3571   -2.1726   -1.9960 C.3       1 <0>        -0.0746
     17 C17         4.5869   -2.5050    3.2643 C.3       1 <0>        -0.0681
     18 C18        -4.8347   -1.8472   -2.1965 C.3       1 <0>        -0.0944
     19 C19         5.9882   -2.5079    3.8779 C.3       1 <0>        -0.0918
     20 C20         5.1203   -2.1076   -3.7746 C.3       1 <0>        -0.1192
     21 C21         4.5564   -1.3488   -2.5679 C.3       1 <0>        -0.0916
     22 C22         5.6479   -3.4850   -3.3924 C.3       1 <0>         0.1883
     23 C23         3.4544   -2.1251   -1.8653 C.3       1 <0>         0.1952
     24 N1         -1.2993   -2.8988   -3.1114 N.pl3     1 <0>        -0.7670
     25 N2          3.5192   -1.7560    0.5781 N.am      1 <0>        -0.4509
     26 N3          7.3239   -6.0965   -5.5492 N.pl3     1 <0>        -0.8477
     27 N4          6.8782   -6.0650   -3.1922 N.pl3     1 <0>        -0.8633
     28 N5          6.2038   -4.1863   -4.5407 N.pl3     1 <0>        -0.7419
     29 N6          2.2741   -2.2179   -2.7432 N.pl3     1 <0>        -0.8860
     30 O1          1.2492   -1.0925    3.3546 O.2       1 <0>        -0.5199
     31 O2          2.0685   -0.5400   -0.7710 O.2       1 <0>        -0.6131
     32 O3          2.6529   -4.7521   -3.0046 O.2       1 <0>        -0.6576
     33 O4          0.8695   -3.6258   -4.3741 O.2       1 <0>        -0.6482
     34 O5          1.3501   -2.6026    1.6500 O.3       1 <0>        -0.6303
     35 S1          1.6226   -3.7401   -3.1398 S.o2      1 <0>         1.5193
     36 H1          0.3842   -5.3302    1.2732 H         1 <0>         0.1426
     37 H2         -1.9583   -4.5572    1.1281 H         1 <0>         0.1398
     38 H3          1.9370   -4.9499   -0.6329 H         1 <0>         0.1599
     39 H4         -3.8054   -4.1420   -1.1852 H         1 <0>         0.0574
     40 H5         -3.5014   -2.8930    0.0353 H         1 <0>         0.0629
     41 H6          3.5311   -4.0088    2.1410 H         1 <0>         0.0614
     42 H7          5.2694   -4.2509    2.1463 H         1 <0>         0.0593
     43 H8          5.0641   -0.5305    2.5137 H         1 <0>         0.0841
     44 H9          3.8399   -0.5392    3.7741 H         1 <0>         0.0679
     45 H10         5.5312   -2.2723    0.6079 H         1 <0>         0.0826
     46 H11         4.4795   -3.5150   -0.0747 H         1 <0>         0.0383
     47 H12        -3.2070   -3.5034   -3.7102 H         1 <0>         0.0556
     48 H13        -2.8054   -1.8217   -4.0651 H         1 <0>         0.0415
     49 H14         2.9188    0.0160    1.5141 H         1 <0>         0.0851
     50 H15        -2.8555   -1.2615   -1.6426 H         1 <0>         0.0639
     51 H16         3.9047   -2.8651    4.0450 H         1 <0>         0.0584
     52 H17        -4.9503   -0.9123   -2.7530 H         1 <0>         0.0401
     53 H18        -5.3316   -2.6451   -2.7565 H         1 <0>         0.0440
     54 H19        -5.3386   -1.7381   -1.2315 H         1 <0>         0.0459
     55 H20         6.0310   -3.1862    4.7353 H         1 <0>         0.0456
     56 H21         6.7293   -2.8350    3.1425 H         1 <0>         0.0366
     57 H22         6.2606   -1.5045    4.2187 H         1 <0>         0.0474
     58 H23         4.3389   -2.2150   -4.5365 H         1 <0>         0.0800
     59 H24         5.9381   -1.5325   -4.2238 H         1 <0>         0.0681
     60 H25         4.1906   -0.3664   -2.8945 H         1 <0>         0.0740
     61 H26         5.3633   -1.1575   -1.8491 H         1 <0>         0.0631
     62 H27         4.8565   -4.1061   -2.9610 H         1 <0>         0.0970
     63 H28         6.4445   -3.3867   -2.6481 H         1 <0>         0.0725
     64 H29         3.7703   -3.1244   -1.5692 H         1 <0>         0.0839
     65 H30        -0.6638   -2.8524   -3.8984 H         1 <0>         0.4531
     66 H31         7.2891   -5.6840   -6.4776 H         1 <0>         0.4798
     67 H32         7.7569   -7.0132   -5.4639 H         1 <0>         0.4881
     68 H33         6.5067   -5.6181   -2.3575 H         1 <0>         0.4801
     69 H34         7.3085   -6.9804   -3.0849 H         1 <0>         0.4806
     70 H35         6.1629   -3.7578   -5.4666 H         1 <0>         0.4689
     71 H36         1.6613   -1.3957   -2.7560 H         1 <0>         0.4505
     72 H37         0.5099   -2.9556    2.0129 H         1 <0>         0.4443
@<TRIPOS>BOND
     1    1    2 ar
     2    1    3 ar
     3    2    4 ar
     4    3    6 ar
     5    4    5 ar
     6    4   10 1
     7    5    6 ar
     8    5   24 1
     9    6   35 1
    10    7   15 1
    11    7   30 2
    12    7   34 1
    13    8   23 1
    14    8   25 am
    15    8   31 2
    16    9   26 1
    17    9   27 1
    18    9   28 1
    19   10   16 1
    20   11   13 1
    21   11   17 1
    22   12   15 1
    23   12   17 1
    24   13   25 1
    25   14   16 1
    26   14   24 1
    27   15   25 1
    28   16   18 1
    29   17   19 1
    30   20   21 1
    31   20   22 1
    32   21   23 1
    33   22   28 1
    34   23   29 1
    35   29   35 1
    36   32   35 2
    37   33   35 2
    38    1   36 1
    39    2   37 1
    40    3   38 1
    41   10   39 1
    42   10   40 1
    43   11   41 1
    44   11   42 1
    45   12   43 1
    46   12   44 1
    47   13   45 1
    48   13   46 1
    49   14   47 1
    50   14   48 1
    51   15   49 1
    52   16   50 1
    53   17   51 1
    54   18   52 1
    55   18   53 1
    56   18   54 1
    57   19   55 1
    58   19   56 1
    59   19   57 1
    60   20   58 1
    61   20   59 1
    62   21   60 1
    63   21   61 1
    64   22   62 1
    65   22   63 1
    66   23   64 1
    67   24   65 1
    68   26   66 1
    69   26   67 1
    70   27   68 1
    71   27   69 1
    72   28   70 1
    73   29   71 1
    74   34   72 1
@<TRIPOS>MOLECULE
1dwc_ligand_356
   72    74     0     0     0
SMALL
USER_CHARGES

mmff94s_NoEstat = 82.84
@<TRIPOS>ATOM
      1 C1         -1.3760   -0.0831    7.4437 C.ar      1 <0>        -0.1945
      2 C2         -1.7166    1.2052    7.0370 C.ar      1 <0>        -0.0294
      3 C3         -1.6287   -1.1649    6.6053 C.ar      1 <0>        -0.0143
      4 C4         -2.3098    1.4195    5.7846 C.ar      1 <0>        -0.1552
      5 C5         -2.5954    0.3267    4.9421 C.ar      1 <0>         0.3076
      6 C6         -2.2310   -0.9605    5.3628 C.ar      1 <0>        -0.4908
      7 C7          3.7233   -2.4449    4.7893 C.2       1 <0>         0.5994
      8 C8          0.8654   -1.4427    3.2413 C.2       1 <0>         0.6462
      9 C9         -1.1012   -7.8073    4.3609 C.cat     1 <0>         0.6305
     10 C10        -2.6790    2.8217    5.3633 C.3       1 <0>        -0.0319
     11 C11         1.7658    0.4222    6.2790 C.3       1 <0>        -0.0918
     12 C12         2.2228   -2.0030    6.6989 C.3       1 <0>        -0.0841
     13 C13         1.9003    0.1799    4.7810 C.3       1 <0>         0.0870
     14 C14        -3.7276    1.8014    3.3273 C.3       1 <0>         0.2023
     15 C15         2.2690   -2.2605    5.1905 C.3       1 <0>         0.0778
     16 C16        -2.8246    2.9293    3.8373 C.3       1 <0>        -0.0746
     17 C17         2.6202   -0.5689    7.0736 C.3       1 <0>        -0.0681
     18 C18        -3.3763    4.2954    3.4390 C.3       1 <0>        -0.0944
     19 C19         2.4647   -0.3375    8.5754 C.3       1 <0>        -0.0918
     20 C20        -0.5404   -4.8511    2.0458 C.3       1 <0>        -0.1192
     21 C21         0.3004   -3.5693    2.0376 C.3       1 <0>        -0.0916
     22 C22        -0.3597   -5.6492    3.3311 C.3       1 <0>         0.1883
     23 C23        -0.0078   -2.6730    3.2260 C.3       1 <0>         0.1952
     24 N1         -3.1817    0.5088    3.6957 N.pl3     1 <0>        -0.7670
     25 N2          1.5999   -1.2067    4.4091 N.am      1 <0>        -0.4509
     26 N3         -1.8613   -8.9717    4.3243 N.pl3     1 <0>        -0.8477
     27 N4         -0.2834   -7.5659    5.4595 N.pl3     1 <0>        -0.8633
     28 N5         -1.1428   -6.8764    3.3174 N.pl3     1 <0>        -0.7419
     29 N6         -1.3760   -2.1385    3.1042 N.pl3     1 <0>        -0.8860
     30 O1          4.4523   -1.5599    4.3665 O.2       1 <0>        -0.5199
     31 O2          0.8891   -0.7105    2.2483 O.2       1 <0>        -0.6131
     32 O3         -2.1204   -3.5503    5.1256 O.2       1 <0>        -0.6576
     33 O4         -3.8433   -2.2664    3.8188 O.2       1 <0>        -0.6482
     34 O5          4.1079   -3.7331    4.9617 O.3       1 <0>        -0.6303
     35 S1         -2.5018   -2.3799    4.3583 S.o2      1 <0>         1.5193
     36 H1         -0.9105   -0.2425    8.4124 H         1 <0>         0.1426
     37 H2         -1.5128    2.0448    7.6973 H         1 <0>         0.1398
     38 H3         -1.3622   -2.1723    6.9089 H         1 <0>         0.1599
     39 H4         -3.6215    3.0926    5.8559 H         1 <0>         0.0574
     40 H5         -1.9103    3.5280    5.7005 H         1 <0>         0.0629
     41 H6          2.0669    1.4503    6.5123 H         1 <0>         0.0614
     42 H7          0.7128    0.3207    6.5714 H         1 <0>         0.0593
     43 H8          1.1978   -2.1858    7.0494 H         1 <0>         0.0841
     44 H9          2.8666   -2.7151    7.2306 H         1 <0>         0.0679
     45 H10         1.2456    0.8722    4.2416 H         1 <0>         0.0826
     46 H11         2.9258    0.3867    4.4518 H         1 <0>         0.0383
     47 H12        -4.7388    1.9004    3.7412 H         1 <0>         0.0556
     48 H13        -3.8175    1.8521    2.2365 H         1 <0>         0.0415
     49 H14         1.7884   -3.2235    4.9909 H         1 <0>         0.0851
     50 H15        -1.8320    2.8194    3.3797 H         1 <0>         0.0639
     51 H16         3.6763   -0.4106    6.8224 H         1 <0>         0.0584
     52 H17        -3.2514    4.4622    2.3649 H         1 <0>         0.0401
     53 H18        -4.4422    4.3638    3.6766 H         1 <0>         0.0440
     54 H19        -2.8521    5.0926    3.9745 H         1 <0>         0.0459
     55 H20         2.1532   -1.2591    9.0761 H         1 <0>         0.0456
     56 H21         3.4121   -0.0103    9.0142 H         1 <0>         0.0366
     57 H22         1.7112    0.4316    8.7697 H         1 <0>         0.0474
     58 H23        -1.5993   -4.5943    1.9218 H         1 <0>         0.0800
     59 H24        -0.2563   -5.4850    1.1980 H         1 <0>         0.0681
     60 H25         0.1357   -3.0322    1.0943 H         1 <0>         0.0740
     61 H26         1.3654   -3.8328    2.0643 H         1 <0>         0.0631
     62 H27        -0.6565   -5.0623    4.2062 H         1 <0>         0.0970
     63 H28         0.6914   -5.9295    3.4522 H         1 <0>         0.0725
     64 H29         0.1003   -3.1895    4.1787 H         1 <0>         0.0839
     65 H30        -3.4363   -0.3112    3.1590 H         1 <0>         0.4531
     66 H31        -2.4745   -9.1890    3.5432 H         1 <0>         0.4798
     67 H32        -1.8257   -9.6431    5.0878 H         1 <0>         0.4881
     68 H33         0.2854   -6.7248    5.5187 H         1 <0>         0.4801
     69 H34        -0.2317   -8.2251    6.2325 H         1 <0>         0.4806
     70 H35        -1.7526   -7.0814    2.5245 H         1 <0>         0.4689
     71 H36        -1.4850   -1.3266    2.4871 H         1 <0>         0.4505
     72 H37         5.0446   -3.8732    4.7061 H         1 <0>         0.4443
@<TRIPOS>BOND
     1    1    2 ar
     2    1    3 ar
     3    2    4 ar
     4    3    6 ar
     5    4    5 ar
     6    4   10 1
     7    5    6 ar
     8    5   24 1
     9    6   35 1
    10    7   15 1
    11    7   30 2
    12    7   34 1
    13    8   23 1
    14    8   25 am
    15    8   31 2
    16    9   26 1
    17    9   27 1
    18    9   28 1
    19   10   16 1
    20   11   13 1
    21   11   17 1
    22   12   15 1
    23   12   17 1
    24   13   25 1
    25   14   16 1
    26   14   24 1
    27   15   25 1
    28   16   18 1
    29   17   19 1
    30   20   21 1
    31   20   22 1
    32   21   23 1
    33   22   28 1
    34   23   29 1
    35   29   35 1
    36   32   35 2
    37   33   35 2
    38    1   36 1
    39    2   37 1
    40    3   38 1
    41   10   39 1
    42   10   40 1
    43   11   41 1
    44   11   42 1
    45   12   43 1
    46   12   44 1
    47   13   45 1
    48   13   46 1
    49   14   47 1
    50   14   48 1
    51   15   49 1
    52   16   50 1
    53   17   51 1
    54   18   52 1
    55   18   53 1
    56   18   54 1
    57   19   55 1
    58   19   56 1
    59   19   57 1
    60   20   58 1
    61   20   59 1
    62   21   60 1
    63   21   61 1
    64   22   62 1
    65   22   63 1
    66   23   64 1
    67   24   65 1
    68   26   66 1
    69   26   67 1
    70   27   68 1
    71   27   69 1
    72   28   70 1
    73   29   71 1
    74   34   72 1
@<TRIPOS>MOLECULE
1dwc_ligand_357
   72    74     0     0     0
SMALL
USER_CHARGES

mmff94s_NoEstat = 82.92
@<TRIPOS>ATOM
      1 C1         -1.4072   -6.2841    0.5334 C.ar      1 <0>        -0.1945
      2 C2         -0.3050   -6.5010   -0.2908 C.ar      1 <0>        -0.0294
      3 C3         -1.2178   -5.9155    1.8618 C.ar      1 <0>        -0.0143
      4 C4          0.9961   -6.3538    0.2114 C.ar      1 <0>        -0.1552
      5 C5          1.1959   -5.9530    1.5470 C.ar      1 <0>         0.3076
      6 C6          0.0742   -5.7546    2.3651 C.ar      1 <0>        -0.4908
      7 C7          0.0474   -1.6003   -0.0563 C.2       1 <0>         0.5994
      8 C8          0.8654   -1.4427    3.2413 C.2       1 <0>         0.6462
      9 C9         -5.4636   -2.1736    4.9361 C.cat     1 <0>         0.6305
     10 C10         2.1776   -6.5853   -0.6996 C.3       1 <0>        -0.0319
     11 C11         2.7802    0.7752    1.0208 C.3       1 <0>        -0.0918
     12 C12         2.5085   -1.4277   -0.1368 C.3       1 <0>        -0.0841
     13 C13         1.5404    0.4804    1.8554 C.3       1 <0>         0.0870
     14 C14         3.6317   -5.8205    1.2015 C.3       1 <0>         0.2023
     15 C15         1.3165   -1.7600    0.7646 C.3       1 <0>         0.0778
     16 C16         3.4776   -6.8504    0.0772 C.3       1 <0>        -0.0746
     17 C17         2.7020    0.0809   -0.3413 C.3       1 <0>        -0.0681
     18 C18         3.5447   -8.2877    0.6061 C.3       1 <0>        -0.0944
     19 C19         3.9570    0.3602   -1.1659 C.3       1 <0>        -0.0918
     20 C20        -2.1115   -1.2711    3.3990 C.3       1 <0>        -0.1192
     21 C21        -1.3133   -2.4479    3.9716 C.3       1 <0>        -0.0916
     22 C22        -3.3821   -0.9970    4.1941 C.3       1 <0>         0.1883
     23 C23        -0.0078   -2.6730    3.2260 C.3       1 <0>         0.1952
     24 N1          2.4729   -5.8065    2.0741 N.pl3     1 <0>        -0.7670
     25 N2          1.2915   -0.9578    1.9994 N.am      1 <0>        -0.4509
     26 N3         -6.2866   -3.2950    4.9445 N.pl3     1 <0>        -0.8477
     27 N4         -5.8471   -1.0460    5.6540 N.pl3     1 <0>        -0.8633
     28 N5         -4.2608   -2.1574    4.2218 N.pl3     1 <0>        -0.7419
     29 N6          0.7961   -3.6905    3.9267 N.pl3     1 <0>        -0.8860
     30 O1         -0.0198   -1.7048   -1.2720 O.2       1 <0>        -0.5199
     31 O2          1.1650   -0.9321    4.3240 O.2       1 <0>        -0.6131
     32 O3         -1.1034   -5.2783    4.6370 O.2       1 <0>        -0.6576
     33 O4          1.2668   -6.1189    4.6309 O.2       1 <0>        -0.6482
     34 O5         -1.0094   -1.3214    0.7454 O.3       1 <0>        -0.6303
     35 S1          0.2254   -5.2894    4.0556 S.o2      1 <0>         1.5193
     36 H1         -2.4130   -6.4058    0.1405 H         1 <0>         0.1426
     37 H2         -0.4624   -6.7916   -1.3268 H         1 <0>         0.1398
     38 H3         -2.0688   -5.7496    2.5150 H         1 <0>         0.1599
     39 H4          1.9762   -7.4254   -1.3755 H         1 <0>         0.0574
     40 H5          2.3035   -5.6869   -1.3173 H         1 <0>         0.0629
     41 H6          2.8818    1.8586    0.8858 H         1 <0>         0.0614
     42 H7          3.6725    0.4327    1.5603 H         1 <0>         0.0593
     43 H8          3.4165   -1.8382    0.3259 H         1 <0>         0.0841
     44 H9          2.4035   -1.9216   -1.1111 H         1 <0>         0.0679
     45 H10         1.6443    0.9520    2.8381 H         1 <0>         0.0826
     46 H11         0.6509    0.9155    1.3839 H         1 <0>         0.0383
     47 H12         4.5279   -6.0341    1.7945 H         1 <0>         0.0556
     48 H13         3.7631   -4.8203    0.7705 H         1 <0>         0.0415
     49 H14         1.3647   -2.8230    1.0210 H         1 <0>         0.0851
     50 H15         4.3197   -6.7370   -0.6165 H         1 <0>         0.0639
     51 H16         1.8454    0.4816   -0.8972 H         1 <0>         0.0584
     52 H17         2.5943   -8.8034    0.4393 H         1 <0>         0.0401
     53 H18         4.3347   -8.8481    0.0972 H         1 <0>         0.0440
     54 H19         3.7555   -8.2927    1.6797 H         1 <0>         0.0459
     55 H20         4.2296   -0.5171   -1.7602 H         1 <0>         0.0456
     56 H21         3.7904    1.1997   -1.8474 H         1 <0>         0.0366
     57 H22         4.7987    0.6086   -0.5125 H         1 <0>         0.0474
     58 H23        -1.4838   -0.3719    3.3933 H         1 <0>         0.0800
     59 H24        -2.3885   -1.4831    2.3599 H         1 <0>         0.0681
     60 H25        -1.9335   -3.3536    3.9489 H         1 <0>         0.0740
     61 H26        -1.0849   -2.2531    5.0271 H         1 <0>         0.0631
     62 H27        -3.9391   -0.1546    3.7717 H         1 <0>         0.0970
     63 H28        -3.1287   -0.7498    5.2299 H         1 <0>         0.0725
     64 H29        -0.1638   -2.9774    2.1921 H         1 <0>         0.0839
     65 H30         2.5644   -5.4443    3.0154 H         1 <0>         0.4531
     66 H31        -6.0482   -4.1406    4.4331 H         1 <0>         0.4798
     67 H32        -7.1601   -3.2982    5.4661 H         1 <0>         0.4881
     68 H33        -5.2692   -0.2091    5.6694 H         1 <0>         0.4801
     69 H34        -6.7154   -1.0290    6.1836 H         1 <0>         0.4806
     70 H35        -4.0063   -3.0002    3.7045 H         1 <0>         0.4689
     71 H36         1.8068   -3.5190    3.9555 H         1 <0>         0.4505
     72 H37        -1.8390   -1.2127    0.2333 H         1 <0>         0.4443
@<TRIPOS>BOND
     1    1    2 ar
     2    1    3 ar
     3    2    4 ar
     4    3    6 ar
     5    4    5 ar
     6    4   10 1
     7    5    6 ar
     8    5   24 1
     9    6   35 1
    10    7   15 1
    11    7   30 2
    12    7   34 1
    13    8   23 1
    14    8   25 am
    15    8   31 2
    16    9   26 1
    17    9   27 1
    18    9   28 1
    19   10   16 1
    20   11   13 1
    21   11   17 1
    22   12   15 1
    23   12   17 1
    24   13   25 1
    25   14   16 1
    26   14   24 1
    27   15   25 1
    28   16   18 1
    29   17   19 1
    30   20   21 1
    31   20   22 1
    32   21   23 1
    33   22   28 1
    34   23   29 1
    35   29   35 1
    36   32   35 2
    37   33   35 2
    38    1   36 1
    39    2   37 1
    40    3   38 1
    41   10   39 1
    42   10   40 1
    43   11   41 1
    44   11   42 1
    45   12   43 1
    46   12   44 1
    47   13   45 1
    48   13   46 1
    49   14   47 1
    50   14   48 1
    51   15   49 1
    52   16   50 1
    53   17   51 1
    54   18   52 1
    55   18   53 1
    56   18   54 1
    57   19   55 1
    58   19   56 1
    59   19   57 1
    60   20   58 1
    61   20   59 1
    62   21   60 1
    63   21   61 1
    64   22   62 1
    65   22   63 1
    66   23   64 1
    67   24   65 1
    68   26   66 1
    69   26   67 1
    70   27   68 1
    71   27   69 1
    72   28   70 1
    73   29   71 1
    74   34   72 1
@<TRIPOS>MOLECULE
1dwc_ligand_358
   72    74     0     0     0
SMALL
USER_CHARGES

mmff94s_NoEstat = 82.99
@<TRIPOS>ATOM
      1 C1         -1.8811   -7.3955    2.4466 C.ar      1 <0>        -0.1945
      2 C2         -2.1524   -7.9421    3.6991 C.ar      1 <0>        -0.0294
      3 C3         -0.8111   -6.5198    2.2891 C.ar      1 <0>        -0.0143
      4 C4         -1.3553   -7.6120    4.8047 C.ar      1 <0>        -0.1552
      5 C5         -0.2531   -6.7489    4.6476 C.ar      1 <0>         0.3076
      6 C6         -0.0057   -6.1967    3.3824 C.ar      1 <0>        -0.4908
      7 C7         -1.4628    0.1636    1.3526 C.2       1 <0>         0.5994
      8 C8          0.8654   -1.4427    3.2413 C.2       1 <0>         0.6462
      9 C9         -3.5174   -3.1325    0.3793 C.cat     1 <0>         0.6305
     10 C10        -1.6602   -8.2210    6.1522 C.3       1 <0>        -0.0319
     11 C11         2.1918    0.8805    0.7195 C.3       1 <0>        -0.0918
     12 C12         0.2821   -0.3679   -0.3105 C.3       1 <0>        -0.0841
     13 C13         1.6113    0.6116    2.1020 C.3       1 <0>         0.0870
     14 C14         0.4274   -7.1008    6.9892 C.3       1 <0>         0.2023
     15 C15        -0.2506   -0.7126    1.0828 C.3       1 <0>         0.0778
     16 C16        -1.0343   -7.4292    7.3118 C.3       1 <0>        -0.0746
     17 C17         1.0859    0.9390   -0.3376 C.3       1 <0>        -0.0681
     18 C18        -1.8422   -6.1701    7.6463 C.3       1 <0>        -0.0944
     19 C19         1.6740    1.1859   -1.7255 C.3       1 <0>        -0.0918
     20 C20        -2.2331   -3.6727    3.9110 C.3       1 <0>        -0.1192
     21 C21        -1.3133   -2.4479    3.9716 C.3       1 <0>        -0.0916
     22 C22        -2.5436   -4.0884    2.4784 C.3       1 <0>         0.1883
     23 C23        -0.0078   -2.6730    3.2260 C.3       1 <0>         0.1952
     24 N1          0.5495   -6.3981    5.7259 N.pl3     1 <0>        -0.7670
     25 N2          0.7744   -0.5925    2.1333 N.am      1 <0>        -0.4509
     26 N3         -4.1320   -2.0919   -0.3093 N.pl3     1 <0>        -0.8477
     27 N4         -3.2282   -4.3140   -0.2948 N.pl3     1 <0>        -0.8633
     28 N5         -3.1850   -3.0147    1.7332 N.pl3     1 <0>        -0.7419
     29 N6          0.7961   -3.6905    3.9267 N.pl3     1 <0>        -0.8860
     30 O1         -2.4527    0.2312    0.6392 O.2       1 <0>        -0.5199
     31 O2          1.6103   -1.2468    4.2054 O.2       1 <0>        -0.6131
     32 O3          2.5030   -5.6116    3.7560 O.2       1 <0>        -0.6576
     33 O4          1.3467   -4.8031    1.6743 O.2       1 <0>        -0.6482
     34 O5         -1.2983    0.8686    2.4985 O.3       1 <0>        -0.6303
     35 S1          1.3247   -5.0804    3.0977 S.o2      1 <0>         1.5193
     36 H1         -2.5060   -7.6499    1.5947 H         1 <0>         0.1426
     37 H2         -2.9923   -8.6232    3.8135 H         1 <0>         0.1398
     38 H3         -0.5938   -6.0831    1.3193 H         1 <0>         0.1599
     39 H4         -2.7449   -8.2917    6.2993 H         1 <0>         0.0574
     40 H5         -1.2589   -9.2425    6.1550 H         1 <0>         0.0629
     41 H6          2.7495    1.8244    0.7335 H         1 <0>         0.0614
     42 H7          2.9066    0.0878    0.4640 H         1 <0>         0.0593
     43 H8          0.9336   -1.1873   -0.6438 H         1 <0>         0.0841
     44 H9         -0.5414   -0.3095   -1.0336 H         1 <0>         0.0679
     45 H10         2.4269    0.5309    2.8282 H         1 <0>         0.0826
     46 H11         0.9807    1.4504    2.4206 H         1 <0>         0.0383
     47 H12         0.8663   -6.4902    7.7861 H         1 <0>         0.0556
     48 H13         1.0113   -8.0280    6.9371 H         1 <0>         0.0415
     49 H14        -0.6325   -1.7382    1.0612 H         1 <0>         0.0851
     50 H15        -1.0595   -8.0597    8.2092 H         1 <0>         0.0639
     51 H16         0.4173    1.7778   -0.1080 H         1 <0>         0.0584
     52 H17        -2.6327   -6.0129    6.9064 H         1 <0>         0.0401
     53 H18        -2.3068   -6.2621    8.6326 H         1 <0>         0.0440
     54 H19        -1.1948   -5.2881    7.6513 H         1 <0>         0.0459
     55 H20         1.1081    0.6390   -2.4855 H         1 <0>         0.0456
     56 H21         1.6425    2.2512   -1.9725 H         1 <0>         0.0366
     57 H22         2.7156    0.8534   -1.7662 H         1 <0>         0.0474
     58 H23        -1.7621   -4.5101    4.4397 H         1 <0>         0.0800
     59 H24        -3.1768   -3.4520    4.4231 H         1 <0>         0.0681
     60 H25        -1.1204   -2.1894    5.0211 H         1 <0>         0.0740
     61 H26        -1.8263   -1.5854    3.5275 H         1 <0>         0.0631
     62 H27        -3.2009   -4.9634    2.4540 H         1 <0>         0.0970
     63 H28        -1.6174   -4.3461    1.9550 H         1 <0>         0.0725
     64 H29        -0.1638   -2.9774    2.1921 H         1 <0>         0.0839
     65 H30         1.3727   -5.8359    5.5480 H         1 <0>         0.4531
     66 H31        -4.3639   -1.2113    0.1425 H         1 <0>         0.4798
     67 H32        -4.3709   -2.1861   -1.2938 H         1 <0>         0.4881
     68 H33        -2.7795   -5.0946    0.1783 H         1 <0>         0.4801
     69 H34        -3.4571   -4.4281   -1.2793 H         1 <0>         0.4806
     70 H35        -3.4097   -2.1352    2.2008 H         1 <0>         0.4689
     71 H36         1.3354   -3.3564    4.7325 H         1 <0>         0.4505
     72 H37        -2.0705    1.4427    2.6896 H         1 <0>         0.4443
@<TRIPOS>BOND
     1    1    2 ar
     2    1    3 ar
     3    2    4 ar
     4    3    6 ar
     5    4    5 ar
     6    4   10 1
     7    5    6 ar
     8    5   24 1
     9    6   35 1
    10    7   15 1
    11    7   30 2
    12    7   34 1
    13    8   23 1
    14    8   25 am
    15    8   31 2
    16    9   26 1
    17    9   27 1
    18    9   28 1
    19   10   16 1
    20   11   13 1
    21   11   17 1
    22   12   15 1
    23   12   17 1
    24   13   25 1
    25   14   16 1
    26   14   24 1
    27   15   25 1
    28   16   18 1
    29   17   19 1
    30   20   21 1
    31   20   22 1
    32   21   23 1
    33   22   28 1
    34   23   29 1
    35   29   35 1
    36   32   35 2
    37   33   35 2
    38    1   36 1
    39    2   37 1
    40    3   38 1
    41   10   39 1
    42   10   40 1
    43   11   41 1
    44   11   42 1
    45   12   43 1
    46   12   44 1
    47   13   45 1
    48   13   46 1
    49   14   47 1
    50   14   48 1
    51   15   49 1
    52   16   50 1
    53   17   51 1
    54   18   52 1
    55   18   53 1
    56   18   54 1
    57   19   55 1
    58   19   56 1
    59   19   57 1
    60   20   58 1
    61   20   59 1
    62   21   60 1
    63   21   61 1
    64   22   62 1
    65   22   63 1
    66   23   64 1
    67   24   65 1
    68   26   66 1
    69   26   67 1
    70   27   68 1
    71   27   69 1
    72   28   70 1
    73   29   71 1
    74   34   72 1
@<TRIPOS>MOLECULE
1dwc_ligand_359
   72    74     0     0     0
SMALL
USER_CHARGES

mmff94s_NoEstat = 83.09
@<TRIPOS>ATOM
      1 C1          4.4928   -6.3998   -3.5466 C.ar      1 <0>        -0.1945
      2 C2          3.6126   -7.2143   -2.8372 C.ar      1 <0>        -0.0294
      3 C3          4.0872   -5.1340   -3.9593 C.ar      1 <0>        -0.0143
      4 C4          2.3199   -6.7643   -2.5325 C.ar      1 <0>        -0.1552
      5 C5          1.8919   -5.4957   -2.9718 C.ar      1 <0>         0.3076
      6 C6          2.7974   -4.6848   -3.6711 C.ar      1 <0>        -0.4908
      7 C7          0.5484   -0.8946    1.4535 C.2       1 <0>         0.5994
      8 C8          2.9466   -1.3973   -0.6457 C.2       1 <0>         0.6462
      9 C9          7.6931   -4.2818   -2.0990 C.cat     1 <0>         0.6305
     10 C10         1.3769   -7.6633   -1.7693 C.3       1 <0>        -0.0319
     11 C11         1.0071   -4.1523    1.0299 C.3       1 <0>        -0.0918
     12 C12         1.8830   -2.5004    2.7729 C.3       1 <0>        -0.0841
     13 C13         2.2320   -3.6460    0.2757 C.3       1 <0>         0.0870
     14 C14        -0.3833   -5.9141   -2.1273 C.3       1 <0>         0.2023
     15 C15         1.9200   -1.5343    1.5913 C.3       1 <0>         0.0778
     16 C16         0.2516   -6.8579   -1.1008 C.3       1 <0>        -0.0746
     17 C17         1.0079   -3.7392    2.5107 C.3       1 <0>        -0.0681
     18 C18        -0.7940   -7.7879   -0.4914 C.3       1 <0>        -0.0944
     19 C19         1.4463   -4.8953    3.4115 C.3       1 <0>        -0.0918
     20 C20         5.7415   -1.0578   -1.6401 C.3       1 <0>        -0.1192
     21 C21         4.5564   -1.3488   -2.5679 C.3       1 <0>        -0.0916
     22 C22         6.4279   -2.3331   -1.1666 C.3       1 <0>         0.1883
     23 C23         3.4544   -2.1251   -1.8653 C.3       1 <0>         0.1952
     24 N1          0.6173   -5.0232   -2.6840 N.pl3     1 <0>        -0.7670
     25 N2          2.3654   -2.1840    0.3531 N.am      1 <0>        -0.4509
     26 N3          8.1964   -4.9967   -3.1809 N.pl3     1 <0>        -0.8477
     27 N4          7.9172   -4.7548   -0.8106 N.pl3     1 <0>        -0.8633
     28 N5          6.9676   -3.0994   -2.2805 N.pl3     1 <0>        -0.7419
     29 N6          2.2741   -2.2179   -2.7432 N.pl3     1 <0>        -0.8860
     30 O1         -0.0257   -0.2688    2.3322 O.2       1 <0>        -0.5199
     31 O2          3.0580   -0.1705   -0.5795 O.2       1 <0>        -0.6131
     32 O3          3.4786   -2.5500   -4.9955 O.2       1 <0>        -0.6576
     33 O4          1.0452   -3.1536   -4.7996 O.2       1 <0>        -0.6482
     34 O5          0.0400   -1.1141    0.2163 O.3       1 <0>        -0.6303
     35 S1          2.3700   -3.0669   -4.2159 S.o2      1 <0>         1.5193
     36 H1          5.4954   -6.7511   -3.7740 H         1 <0>         0.1426
     37 H2          3.9390   -8.2006   -2.5161 H         1 <0>         0.1398
     38 H3          4.7662   -4.4885   -4.5072 H         1 <0>         0.1599
     39 H4          0.9565   -8.3959   -2.4699 H         1 <0>         0.0574
     40 H5          1.9286   -8.2156   -0.9986 H         1 <0>         0.0629
     41 H6          0.1116   -3.7326    0.5525 H         1 <0>         0.0614
     42 H7          0.9264   -5.2409    0.9288 H         1 <0>         0.0593
     43 H8          2.9117   -2.8226    2.9853 H         1 <0>         0.0841
     44 H9          1.5267   -1.9929    3.6785 H         1 <0>         0.0679
     45 H10         3.1493   -4.0774    0.6933 H         1 <0>         0.0826
     46 H11         2.1726   -3.9558   -0.7722 H         1 <0>         0.0383
     47 H12        -0.8526   -6.4855   -2.9377 H         1 <0>         0.0556
     48 H13        -1.1701   -5.3152   -1.6553 H         1 <0>         0.0415
     49 H14         2.6095   -0.7128    1.8202 H         1 <0>         0.0851
     50 H15         0.6827   -6.2563   -0.2891 H         1 <0>         0.0639
     51 H16        -0.0273   -3.5034    2.7887 H         1 <0>         0.0584
     52 H17        -1.4531   -7.2348    0.1844 H         1 <0>         0.0401
     53 H18        -1.4073   -8.2428   -1.2750 H         1 <0>         0.0440
     54 H19        -0.3115   -8.5886    0.0770 H         1 <0>         0.0459
     55 H20         0.5753   -5.4296    3.8024 H         1 <0>         0.0456
     56 H21         2.0638   -5.6051    2.8530 H         1 <0>         0.0366
     57 H22         2.0303   -4.5225    4.2583 H         1 <0>         0.0474
     58 H23         6.4686   -0.4251   -2.1633 H         1 <0>         0.0800
     59 H24         5.3954   -0.5006   -0.7619 H         1 <0>         0.0681
     60 H25         4.9119   -1.8947   -3.4517 H         1 <0>         0.0740
     61 H26         4.1396   -0.4017   -2.9334 H         1 <0>         0.0631
     62 H27         5.7338   -2.9738   -0.6133 H         1 <0>         0.0970
     63 H28         7.2615   -2.0842   -0.5022 H         1 <0>         0.0725
     64 H29         3.7703   -3.1244   -1.5692 H         1 <0>         0.0839
     65 H30         0.3298   -4.1388   -3.0846 H         1 <0>         0.4531
     66 H31         8.0557   -4.6904   -4.1399 H         1 <0>         0.4798
     67 H32         8.7224   -5.8561   -3.0401 H         1 <0>         0.4881
     68 H33         7.5634   -4.2571    0.0028 H         1 <0>         0.4801
     69 H34         8.4421   -5.6108   -0.6478 H         1 <0>         0.4806
     70 H35         6.8195   -2.7774   -3.2381 H         1 <0>         0.4689
     71 H36         1.3641   -2.1281   -2.2790 H         1 <0>         0.4505
     72 H37        -0.8473   -0.7100    0.1079 H         1 <0>         0.4443
@<TRIPOS>BOND
     1    1    2 ar
     2    1    3 ar
     3    2    4 ar
     4    3    6 ar
     5    4    5 ar
     6    4   10 1
     7    5    6 ar
     8    5   24 1
     9    6   35 1
    10    7   15 1
    11    7   30 2
    12    7   34 1
    13    8   23 1
    14    8   25 am
    15    8   31 2
    16    9   26 1
    17    9   27 1
    18    9   28 1
    19   10   16 1
    20   11   13 1
    21   11   17 1
    22   12   15 1
    23   12   17 1
    24   13   25 1
    25   14   16 1
    26   14   24 1
    27   15   25 1
    28   16   18 1
    29   17   19 1
    30   20   21 1
    31   20   22 1
    32   21   23 1
    33   22   28 1
    34   23   29 1
    35   29   35 1
    36   32   35 2
    37   33   35 2
    38    1   36 1
    39    2   37 1
    40    3   38 1
    41   10   39 1
    42   10   40 1
    43   11   41 1
    44   11   42 1
    45   12   43 1
    46   12   44 1
    47   13   45 1
    48   13   46 1
    49   14   47 1
    50   14   48 1
    51   15   49 1
    52   16   50 1
    53   17   51 1
    54   18   52 1
    55   18   53 1
    56   18   54 1
    57   19   55 1
    58   19   56 1
    59   19   57 1
    60   20   58 1
    61   20   59 1
    62   21   60 1
    63   21   61 1
    64   22   62 1
    65   22   63 1
    66   23   64 1
    67   24   65 1
    68   26   66 1
    69   26   67 1
    70   27   68 1
    71   27   69 1
    72   28   70 1
    73   29   71 1
    74   34   72 1
@<TRIPOS>MOLECULE
1dwc_ligand_360
   72    74     0     0     0
SMALL
USER_CHARGES

mmff94s_NoEstat = 83.13
@<TRIPOS>ATOM
      1 C1         -2.7374   -5.2793   -0.2736 C.ar      1 <0>        -0.1945
      2 C2         -3.2110   -4.3658   -1.2130 C.ar      1 <0>        -0.0294
      3 C3         -2.5916   -4.8947    1.0560 C.ar      1 <0>        -0.0143
      4 C4         -3.5461   -3.0604   -0.8258 C.ar      1 <0>        -0.1552
      5 C5         -3.3740   -2.6546    0.5126 C.ar      1 <0>         0.3076
      6 C6         -2.9106   -3.5930    1.4461 C.ar      1 <0>        -0.4908
      7 C7          0.7009   -2.1464    6.5648 C.2       1 <0>         0.5994
      8 C8          0.8654   -1.4427    3.2413 C.2       1 <0>         0.6462
      9 C9          2.1577   -4.6267   -1.7165 C.cat     1 <0>         0.6305
     10 C10        -4.0509   -2.0814   -1.8586 C.3       1 <0>        -0.0319
     11 C11         2.1349    1.1778    5.4857 C.3       1 <0>        -0.0918
     12 C12         0.0512    0.2342    6.5026 C.3       1 <0>        -0.0841
     13 C13         2.3350   -0.1191    4.7120 C.3       1 <0>         0.0870
     14 C14        -4.0009   -0.3416   -0.0541 C.3       1 <0>         0.2023
     15 C15         0.2061   -1.0325    5.6569 C.3       1 <0>         0.0778
     16 C16        -4.8257   -0.9262   -1.2054 C.3       1 <0>        -0.0746
     17 C17         1.3898    0.9236    6.7987 C.3       1 <0>        -0.0681
     18 C18        -5.1690    0.1479   -2.2340 C.3       1 <0>        -0.0944
     19 C19         1.1710    2.2294    7.5603 C.3       1 <0>        -0.0918
     20 C20         1.7689   -4.0083    2.0091 C.3       1 <0>        -0.1192
     21 C21         0.3004   -3.5693    2.0376 C.3       1 <0>        -0.0916
     22 C22         2.0958   -4.8429    0.7769 C.3       1 <0>         0.1883
     23 C23        -0.0078   -2.6730    3.2260 C.3       1 <0>         0.1952
     24 N1         -3.6984   -1.3681    0.9253 N.pl3     1 <0>        -0.7670
     25 N2          1.0754   -0.8353    4.4846 N.am      1 <0>        -0.4509
     26 N3          1.9356   -3.8927   -2.8771 N.pl3     1 <0>        -0.8477
     27 N4          2.6719   -5.9149   -1.8171 N.pl3     1 <0>        -0.8633
     28 N5          1.8751   -4.0962   -0.4532 N.pl3     1 <0>        -0.7419
     29 N6         -1.3760   -2.1385    3.1042 N.pl3     1 <0>        -0.8860
     30 O1          0.5199   -2.2002    7.7722 O.2       1 <0>        -0.5199
     31 O2          1.3411   -1.0305    2.1799 O.2       1 <0>        -0.6131
     32 O3         -3.8876   -2.4594    3.5758 O.2       1 <0>        -0.6576
     33 O4         -2.3275   -4.4157    3.8277 O.2       1 <0>        -0.6482
     34 O5          1.3782   -3.0796    5.8523 O.3       1 <0>        -0.6303
     35 S1         -2.7118   -3.1932    3.1483 S.o2      1 <0>         1.5193
     36 H1         -2.4856   -6.2914   -0.5781 H         1 <0>         0.1426
     37 H2         -3.3245   -4.6759   -2.2491 H         1 <0>         0.1398
     38 H3         -2.2294   -5.5995    1.7977 H         1 <0>         0.1599
     39 H4         -3.1889   -1.6944   -2.4168 H         1 <0>         0.0574
     40 H5         -4.7076   -2.5954   -2.5713 H         1 <0>         0.0629
     41 H6          3.1095    1.6373    5.6888 H         1 <0>         0.0614
     42 H7          1.5671    1.8861    4.8689 H         1 <0>         0.0593
     43 H8         -0.5924    0.9376    5.9566 H         1 <0>         0.0841
     44 H9         -0.4632    0.0070    7.4450 H         1 <0>         0.0679
     45 H10         2.8294    0.0994    3.7598 H         1 <0>         0.0826
     46 H11         2.9949   -0.7966    5.2674 H         1 <0>         0.0383
     47 H12        -3.0647    0.0891   -0.4306 H         1 <0>         0.0556
     48 H13        -4.5550    0.4664    0.4366 H         1 <0>         0.0415
     49 H14        -0.7880   -1.3485    5.3249 H         1 <0>         0.0851
     50 H15        -5.7679   -1.3185   -0.7994 H         1 <0>         0.0639
     51 H16         1.9994    0.2688    7.4336 H         1 <0>         0.0584
     52 H17        -5.9177    0.8380   -1.8337 H         1 <0>         0.0401
     53 H18        -4.2777    0.7235   -2.5010 H         1 <0>         0.0440
     54 H19        -5.5713   -0.3064   -3.1444 H         1 <0>         0.0459
     55 H20         0.1089    2.3722    7.7811 H         1 <0>         0.0456
     56 H21         1.7213    2.2199    8.5059 H         1 <0>         0.0366
     57 H22         1.5173    3.0821    6.9686 H         1 <0>         0.0474
     58 H23         2.4156   -3.1229    2.0318 H         1 <0>         0.0800
     59 H24         1.9949   -4.6013    2.9028 H         1 <0>         0.0681
     60 H25        -0.3448   -4.4577    2.0448 H         1 <0>         0.0740
     61 H26         0.0666   -3.0218    1.1158 H         1 <0>         0.0631
     62 H27         1.4860   -5.7513    0.7413 H         1 <0>         0.0970
     63 H28         3.1484   -5.1425    0.7970 H         1 <0>         0.0725
     64 H29         0.1003   -3.1895    4.1787 H         1 <0>         0.0839
     65 H30        -3.4869   -1.1007    1.8788 H         1 <0>         0.4531
     66 H31         1.5595   -2.9487   -2.8523 H         1 <0>         0.4798
     67 H32         2.1433   -4.2863   -3.7920 H         1 <0>         0.4881
     68 H33         2.8463   -6.4791   -0.9889 H         1 <0>         0.4801
     69 H34         2.8881   -6.3264   -2.7218 H         1 <0>         0.4806
     70 H35         1.4985   -3.1480   -0.4116 H         1 <0>         0.4689
     71 H36        -1.5021   -1.1633    3.3956 H         1 <0>         0.4505
     72 H37         1.7079   -3.8072    6.4216 H         1 <0>         0.4443
@<TRIPOS>BOND
     1    1    2 ar
     2    1    3 ar
     3    2    4 ar
     4    3    6 ar
     5    4    5 ar
     6    4   10 1
     7    5    6 ar
     8    5   24 1
     9    6   35 1
    10    7   15 1
    11    7   30 2
    12    7   34 1
    13    8   23 1
    14    8   25 am
    15    8   31 2
    16    9   26 1
    17    9   27 1
    18    9   28 1
    19   10   16 1
    20   11   13 1
    21   11   17 1
    22   12   15 1
    23   12   17 1
    24   13   25 1
    25   14   16 1
    26   14   24 1
    27   15   25 1
    28   16   18 1
    29   17   19 1
    30   20   21 1
    31   20   22 1
    32   21   23 1
    33   22   28 1
    34   23   29 1
    35   29   35 1
    36   32   35 2
    37   33   35 2
    38    1   36 1
    39    2   37 1
    40    3   38 1
    41   10   39 1
    42   10   40 1
    43   11   41 1
    44   11   42 1
    45   12   43 1
    46   12   44 1
    47   13   45 1
    48   13   46 1
    49   14   47 1
    50   14   48 1
    51   15   49 1
    52   16   50 1
    53   17   51 1
    54   18   52 1
    55   18   53 1
    56   18   54 1
    57   19   55 1
    58   19   56 1
    59   19   57 1
    60   20   58 1
    61   20   59 1
    62   21   60 1
    63   21   61 1
    64   22   62 1
    65   22   63 1
    66   23   64 1
    67   24   65 1
    68   26   66 1
    69   26   67 1
    70   27   68 1
    71   27   69 1
    72   28   70 1
    73   29   71 1
    74   34   72 1
@<TRIPOS>MOLECULE
1dwc_ligand_361
   72    74     0     0     0
SMALL
USER_CHARGES

mmff94s_NoEstat = 83.15
@<TRIPOS>ATOM
      1 C1         -3.1525   -6.1500    2.7247 C.ar      1 <0>        -0.1945
      2 C2         -3.7220   -6.2210    3.9943 C.ar      1 <0>        -0.0294
      3 C3         -1.7958   -5.8721    2.5879 C.ar      1 <0>        -0.0143
      4 C4         -2.9366   -6.0100    5.1368 C.ar      1 <0>        -0.1552
      5 C5         -1.5569   -5.7567    5.0078 C.ar      1 <0>         0.3076
      6 C6         -1.0052   -5.6737    3.7210 C.ar      1 <0>        -0.4908
      7 C7          1.0326   -1.5891   -0.1526 C.2       1 <0>         0.5994
      8 C8          0.8654   -1.4427    3.2413 C.2       1 <0>         0.6462
      9 C9         -3.9804   -3.0789    0.6325 C.cat     1 <0>         0.6305
     10 C10        -3.5704   -6.0992    6.5042 C.3       1 <0>        -0.0319
     11 C11         4.0928   -0.4819    1.7658 C.3       1 <0>        -0.0918
     12 C12         3.2369   -2.4756    0.5172 C.3       1 <0>        -0.0841
     13 C13         2.6673   -0.1389    2.1793 C.3       1 <0>         0.0870
     14 C14        -1.2626   -5.8045    7.4534 C.3       1 <0>         0.2023
     15 C15         1.8171   -2.1794    1.0075 C.3       1 <0>         0.0778
     16 C16        -2.7344   -5.3990    7.5879 C.3       1 <0>        -0.0746
     17 C17         4.1123   -1.2187    0.4240 C.3       1 <0>        -0.0681
     18 C18        -2.9130   -3.8769    7.5534 C.3       1 <0>        -0.0944
     19 C19         5.5413   -1.5810    0.0243 C.3       1 <0>        -0.0918
     20 C20        -2.1115   -1.2711    3.3990 C.3       1 <0>        -0.1192
     21 C21        -1.3133   -2.4479    3.9716 C.3       1 <0>        -0.0916
     22 C22        -2.5427   -1.5156    1.9582 C.3       1 <0>         0.1883
     23 C23        -0.0078   -2.6730    3.2260 C.3       1 <0>         0.1952
     24 N1         -0.7555   -5.5363    6.1210 N.pl3     1 <0>        -0.7670
     25 N2          1.7920   -1.3156    2.2000 N.am      1 <0>        -0.4509
     26 N3         -4.8018   -4.1986    0.5514 N.pl3     1 <0>        -0.8477
     27 N4         -3.7248   -2.3408   -0.5181 N.pl3     1 <0>        -0.8633
     28 N5         -3.4075   -2.6813    1.8454 N.pl3     1 <0>        -0.7419
     29 N6          0.7961   -3.6905    3.9267 N.pl3     1 <0>        -0.8860
     30 O1          1.2748   -1.7833   -1.3346 O.2       1 <0>        -0.5199
     31 O2          0.7326   -0.6231    4.1542 O.2       1 <0>        -0.6131
     32 O3          1.4689   -6.1338    4.3859 O.2       1 <0>        -0.6576
     33 O4          0.9378   -5.4244    2.0325 O.2       1 <0>        -0.6482
     34 O5          0.0210   -0.8093    0.3011 O.3       1 <0>        -0.6303
     35 S1          0.6998   -5.3249    3.4597 S.o2      1 <0>         1.5193
     36 H1         -3.7672   -6.3081    1.8427 H         1 <0>         0.1426
     37 H2         -4.7835   -6.4358    4.0916 H         1 <0>         0.1398
     38 H3         -1.3423   -5.8084    1.6037 H         1 <0>         0.1599
     39 H4         -4.5789   -5.6685    6.4833 H         1 <0>         0.0574
     40 H5         -3.6702   -7.1626    6.7568 H         1 <0>         0.0629
     41 H6          4.6862    0.4377    1.6990 H         1 <0>         0.0614
     42 H7          4.5556   -1.1085    2.5390 H         1 <0>         0.0593
     43 H8          3.7056   -3.1781    1.2199 H         1 <0>         0.0841
     44 H9          3.2100   -2.9795   -0.4573 H         1 <0>         0.0679
     45 H10         2.6813    0.3462    3.1608 H         1 <0>         0.0826
     46 H11         2.2276    0.5771    1.4744 H         1 <0>         0.0383
     47 H12        -0.6505   -5.2688    8.1875 H         1 <0>         0.0556
     48 H13        -1.1538   -6.8753    7.6654 H         1 <0>         0.0415
     49 H14         1.3264   -3.1308    1.2358 H         1 <0>         0.0851
     50 H15        -3.0985   -5.7306    8.5681 H         1 <0>         0.0639
     51 H16         3.7098   -0.5563   -0.3523 H         1 <0>         0.0584
     52 H17        -3.4985   -3.5784    6.6787 H         1 <0>         0.0401
     53 H18        -3.4337   -3.5305    8.4511 H         1 <0>         0.0440
     54 H19        -1.9410   -3.3769    7.5042 H         1 <0>         0.0459
     55 H20         5.5642   -2.5489   -0.4852 H         1 <0>         0.0456
     56 H21         5.9547   -0.8262   -0.6513 H         1 <0>         0.0366
     57 H22         6.1838   -1.6417    0.9078 H         1 <0>         0.0474
     58 H23        -2.9980   -1.0942    4.0198 H         1 <0>         0.0800
     59 H24        -1.5025   -0.3604    3.4316 H         1 <0>         0.0681
     60 H25        -1.9335   -3.3536    3.9489 H         1 <0>         0.0740
     61 H26        -1.0849   -2.2531    5.0271 H         1 <0>         0.0631
     62 H27        -1.6765   -1.6664    1.3061 H         1 <0>         0.0970
     63 H28        -3.1019   -0.6522    1.5838 H         1 <0>         0.0725
     64 H29        -0.1638   -2.9774    2.1921 H         1 <0>         0.0839
     65 H30         0.2422   -5.4334    5.9808 H         1 <0>         0.4531
     66 H31        -5.0147   -4.7691    1.3653 H         1 <0>         0.4798
     67 H32        -5.2139   -4.4811   -0.3349 H         1 <0>         0.4881
     68 H33        -3.1288   -1.5169   -0.4944 H         1 <0>         0.4801
     69 H34        -4.1283   -2.6051   -1.4136 H         1 <0>         0.4806
     70 H35        -3.6137   -3.2432    2.6727 H         1 <0>         0.4689
     71 H36         1.6533   -3.3509    4.3757 H         1 <0>         0.4505
     72 H37        -0.4970   -0.4169   -0.4338 H         1 <0>         0.4443
@<TRIPOS>BOND
     1    1    2 ar
     2    1    3 ar
     3    2    4 ar
     4    3    6 ar
     5    4    5 ar
     6    4   10 1
     7    5    6 ar
     8    5   24 1
     9    6   35 1
    10    7   15 1
    11    7   30 2
    12    7   34 1
    13    8   23 1
    14    8   25 am
    15    8   31 2
    16    9   26 1
    17    9   27 1
    18    9   28 1
    19   10   16 1
    20   11   13 1
    21   11   17 1
    22   12   15 1
    23   12   17 1
    24   13   25 1
    25   14   16 1
    26   14   24 1
    27   15   25 1
    28   16   18 1
    29   17   19 1
    30   20   21 1
    31   20   22 1
    32   21   23 1
    33   22   28 1
    34   23   29 1
    35   29   35 1
    36   32   35 2
    37   33   35 2
    38    1   36 1
    39    2   37 1
    40    3   38 1
    41   10   39 1
    42   10   40 1
    43   11   41 1
    44   11   42 1
    45   12   43 1
    46   12   44 1
    47   13   45 1
    48   13   46 1
    49   14   47 1
    50   14   48 1
    51   15   49 1
    52   16   50 1
    53   17   51 1
    54   18   52 1
    55   18   53 1
    56   18   54 1
    57   19   55 1
    58   19   56 1
    59   19   57 1
    60   20   58 1
    61   20   59 1
    62   21   60 1
    63   21   61 1
    64   22   62 1
    65   22   63 1
    66   23   64 1
    67   24   65 1
    68   26   66 1
    69   26   67 1
    70   27   68 1
    71   27   69 1
    72   28   70 1
    73   29   71 1
    74   34   72 1
@<TRIPOS>MOLECULE
1dwc_ligand_362
   72    74     0     0     0
SMALL
USER_CHARGES

mmff94s_NoEstat = 83.17
@<TRIPOS>ATOM
      1 C1         -1.3865    0.4483    6.9697 C.ar      1 <0>        -0.1945
      2 C2         -0.5343   -0.2259    7.8418 C.ar      1 <0>        -0.0294
      3 C3         -1.9752   -0.2339    5.9091 C.ar      1 <0>        -0.0143
      4 C4         -0.2690   -1.5907    7.6596 C.ar      1 <0>        -0.1552
      5 C5         -0.8382   -2.2818    6.5715 C.ar      1 <0>         0.3076
      6 C6         -1.7052   -1.5894    5.7138 C.ar      1 <0>        -0.4908
      7 C7          4.0428   -2.6510    3.1279 C.2       1 <0>         0.5994
      8 C8          0.8654   -1.4427    3.2413 C.2       1 <0>         0.6462
      9 C9          1.7699   -7.1193    0.0630 C.cat     1 <0>         0.6305
     10 C10         0.6628   -2.3037    8.6102 C.3       1 <0>        -0.0319
     11 C11         3.0349   -0.4758    6.0475 C.3       1 <0>        -0.0918
     12 C12         3.4817   -2.8819    5.5206 C.3       1 <0>        -0.0841
     13 C13         2.5314   -0.2662    4.6251 C.3       1 <0>         0.0870
     14 C14         0.4361   -4.3139    7.1291 C.3       1 <0>         0.2023
     15 C15         2.8926   -2.6899    4.1206 C.3       1 <0>         0.0778
     16 C16         0.4391   -3.8238    8.5808 C.3       1 <0>        -0.0746
     17 C17         4.0802   -1.5931    6.1000 C.3       1 <0>        -0.0681
     18 C18         1.5050   -4.5457    9.4006 C.3       1 <0>        -0.0944
     19 C19         4.5654   -1.8157    7.5311 C.3       1 <0>        -0.0918
     20 C20        -0.5404   -4.8511    2.0458 C.3       1 <0>        -0.1192
     21 C21         0.3004   -3.5693    2.0376 C.3       1 <0>        -0.0916
     22 C22        -0.1768   -5.7847    0.8978 C.3       1 <0>         0.1883
     23 C23        -0.0078   -2.6730    3.2260 C.3       1 <0>         0.1952
     24 N1         -0.5939   -3.6341    6.3665 N.pl3     1 <0>        -0.7670
     25 N2          2.0252   -1.5038    4.0223 N.am      1 <0>        -0.4509
     26 N3          3.1011   -7.5120    0.1550 N.pl3     1 <0>        -0.8477
     27 N4          0.9786   -7.6393   -0.9556 N.pl3     1 <0>        -0.8633
     28 N5          1.2122   -6.2141    0.9723 N.pl3     1 <0>        -0.7419
     29 N6         -1.3760   -2.1385    3.1042 N.pl3     1 <0>        -0.8860
     30 O1          4.5855   -1.6340    2.7222 O.2       1 <0>        -0.5199
     31 O2          0.5240   -0.4555    2.5844 O.2       1 <0>        -0.6131
     32 O3         -2.5906   -3.7967    4.6561 O.2       1 <0>        -0.6576
     33 O4         -3.7019   -1.6181    4.0705 O.2       1 <0>        -0.6482
     34 O5          4.3885   -3.9048    2.7464 O.3       1 <0>        -0.6303
     35 S1         -2.5018   -2.3799    4.3583 S.o2      1 <0>         1.5193
     36 H1         -1.5937    1.5043    7.1196 H         1 <0>         0.1426
     37 H2         -0.0811    0.3144    8.6695 H         1 <0>         0.1398
     38 H3         -2.6454    0.2794    5.2269 H         1 <0>         0.1599
     39 H4          1.6952   -2.0650    8.3246 H         1 <0>         0.0574
     40 H5          0.5054   -1.9381    9.6324 H         1 <0>         0.0629
     41 H6          3.4643    0.4595    6.4257 H         1 <0>         0.0614
     42 H7          2.1893   -0.7290    6.6997 H         1 <0>         0.0593
     43 H8          2.6805   -3.2276    6.1882 H         1 <0>         0.0841
     44 H9          4.2439   -3.6714    5.5123 H         1 <0>         0.0679
     45 H10         1.7550    0.5058    4.6255 H         1 <0>         0.0826
     46 H11         3.3431    0.0962    3.9827 H         1 <0>         0.0383
     47 H12         1.4122   -4.1368    6.6605 H         1 <0>         0.0556
     48 H13         0.2510   -5.3933    7.0942 H         1 <0>         0.0415
     49 H14         2.3173   -3.5850    3.8636 H         1 <0>         0.0851
     50 H15        -0.5391   -4.0450    9.0289 H         1 <0>         0.0639
     51 H16         4.9487   -1.2974    5.4988 H         1 <0>         0.0584
     52 H17         1.2125   -5.5843    9.5819 H         1 <0>         0.0401
     53 H18         2.4629   -4.5449    8.8719 H         1 <0>         0.0440
     54 H19         1.6448   -4.0535   10.3677 H         1 <0>         0.0459
     55 H20         4.4326   -2.8615    7.8238 H         1 <0>         0.0456
     56 H21         5.6267   -1.5650    7.6207 H         1 <0>         0.0366
     57 H22         4.0032   -1.1886    8.2295 H         1 <0>         0.0474
     58 H23        -0.4002   -5.3741    2.9994 H         1 <0>         0.0800
     59 H24        -1.6035   -4.5964    1.9658 H         1 <0>         0.0681
     60 H25         0.1357   -3.0322    1.0943 H         1 <0>         0.0740
     61 H26         1.3654   -3.8328    2.0643 H         1 <0>         0.0631
     62 H27        -0.3350   -5.3004   -0.0711 H         1 <0>         0.0970
     63 H28        -0.8024   -6.6822    0.9336 H         1 <0>         0.0725
     64 H29         0.1003   -3.1895    4.1787 H         1 <0>         0.0839
     65 H30        -0.9636   -4.0687    5.5300 H         1 <0>         0.4531
     66 H31         3.7173   -7.1568    0.8813 H         1 <0>         0.4798
     67 H32         3.4989   -8.1703   -0.5108 H         1 <0>         0.4881
     68 H33         0.0016   -7.3736   -1.0521 H         1 <0>         0.4801
     69 H34         1.3562   -8.3001   -1.6305 H         1 <0>         0.4806
     70 H35         1.8180   -5.8498    1.7091 H         1 <0>         0.4689
     71 H36        -1.4850   -1.3266    2.4871 H         1 <0>         0.4505
     72 H37         5.1292   -3.9010    2.1032 H         1 <0>         0.4443
@<TRIPOS>BOND
     1    1    2 ar
     2    1    3 ar
     3    2    4 ar
     4    3    6 ar
     5    4    5 ar
     6    4   10 1
     7    5    6 ar
     8    5   24 1
     9    6   35 1
    10    7   15 1
    11    7   30 2
    12    7   34 1
    13    8   23 1
    14    8   25 am
    15    8   31 2
    16    9   26 1
    17    9   27 1
    18    9   28 1
    19   10   16 1
    20   11   13 1
    21   11   17 1
    22   12   15 1
    23   12   17 1
    24   13   25 1
    25   14   16 1
    26   14   24 1
    27   15   25 1
    28   16   18 1
    29   17   19 1
    30   20   21 1
    31   20   22 1
    32   21   23 1
    33   22   28 1
    34   23   29 1
    35   29   35 1
    36   32   35 2
    37   33   35 2
    38    1   36 1
    39    2   37 1
    40    3   38 1
    41   10   39 1
    42   10   40 1
    43   11   41 1
    44   11   42 1
    45   12   43 1
    46   12   44 1
    47   13   45 1
    48   13   46 1
    49   14   47 1
    50   14   48 1
    51   15   49 1
    52   16   50 1
    53   17   51 1
    54   18   52 1
    55   18   53 1
    56   18   54 1
    57   19   55 1
    58   19   56 1
    59   19   57 1
    60   20   58 1
    61   20   59 1
    62   21   60 1
    63   21   61 1
    64   22   62 1
    65   22   63 1
    66   23   64 1
    67   24   65 1
    68   26   66 1
    69   26   67 1
    70   27   68 1
    71   27   69 1
    72   28   70 1
    73   29   71 1
    74   34   72 1
@<TRIPOS>MOLECULE
1dwc_ligand_363
   72    74     0     0     0
SMALL
USER_CHARGES

mmff94s_NoEstat = 83.25
@<TRIPOS>ATOM
      1 C1          0.3205    0.2218    6.9260 C.ar      1 <0>        -0.1945
      2 C2          0.4995    1.4601    6.3130 C.ar      1 <0>        -0.0294
      3 C3         -0.5256   -0.7215    6.3505 C.ar      1 <0>        -0.0143
      4 C4         -0.1655    1.7608    5.1157 C.ar      1 <0>        -0.1552
      5 C5         -1.0462    0.8223    4.5419 C.ar      1 <0>         0.3076
      6 C6         -1.2011   -0.4241    5.1658 C.ar      1 <0>        -0.4908
      7 C7          3.5686   -3.4379    3.7704 C.2       1 <0>         0.5994
      8 C8          0.8654   -1.4427    3.2413 C.2       1 <0>         0.6462
      9 C9         -3.6509   -3.5619    0.2918 C.cat     1 <0>         0.6305
     10 C10         0.0346    3.1106    4.4690 C.3       1 <0>        -0.0319
     11 C11         3.4440   -0.0674    5.4719 C.3       1 <0>        -0.0918
     12 C12         3.1682   -2.4952    6.0163 C.3       1 <0>        -0.0841
     13 C13         2.9000   -0.3276    4.0730 C.3       1 <0>         0.0870
     14 C14        -1.7112    2.4331    2.8019 C.3       1 <0>         0.2023
     15 C15         2.5392   -2.7371    4.6417 C.3       1 <0>         0.0778
     16 C16        -0.3325    3.0781    2.9771 C.3       1 <0>        -0.0746
     17 C17         4.1435   -1.3104    6.0281 C.3       1 <0>        -0.0681
     18 C18        -0.3048    4.4824    2.3800 C.3       1 <0>        -0.0944
     19 C19         4.6673   -1.0527    7.4396 C.3       1 <0>        -0.0918
     20 C20        -0.5404   -4.8511    2.0458 C.3       1 <0>        -0.1192
     21 C21         0.3004   -3.5693    2.0376 C.3       1 <0>        -0.0916
     22 C22        -2.0309   -4.5619    1.9177 C.3       1 <0>         0.1883
     23 C23        -0.0078   -2.6730    3.2260 C.3       1 <0>         0.1952
     24 N1         -1.7179    1.0923    3.3560 N.pl3     1 <0>        -0.7670
     25 N2          2.0252   -1.5038    4.0223 N.am      1 <0>        -0.4509
     26 N3         -3.9214   -2.9120   -0.9079 N.pl3     1 <0>        -0.8477
     27 N4         -4.7056   -3.8972    1.1340 N.pl3     1 <0>        -0.8633
     28 N5         -2.3424   -3.8843    0.6674 N.pl3     1 <0>        -0.7419
     29 N6         -1.3760   -2.1385    3.1042 N.pl3     1 <0>        -0.8860
     30 O1          4.3335   -2.8779    2.9993 O.2       1 <0>        -0.5199
     31 O2          0.5240   -0.4555    2.5844 O.2       1 <0>        -0.6131
     32 O3         -2.2645   -2.7847    5.4337 O.2       1 <0>        -0.6576
     33 O4         -3.4757   -1.0330    4.0961 O.2       1 <0>        -0.6482
     34 O5          3.5241   -4.7791    3.9616 O.3       1 <0>        -0.6303
     35 S1         -2.2397   -1.6774    4.4970 S.o2      1 <0>         1.5193
     36 H1          0.8435   -0.0082    7.8502 H         1 <0>         0.1426
     37 H2          1.1648    2.1899    6.7682 H         1 <0>         0.1398
     38 H3         -0.6680   -1.6917    6.8158 H         1 <0>         0.1599
     39 H4         -0.5887    3.8423    4.9988 H         1 <0>         0.0574
     40 H5          1.0806    3.4239    4.5739 H         1 <0>         0.0629
     41 H6          4.1435    0.7764    5.4419 H         1 <0>         0.0614
     42 H7          2.6191    0.2214    6.1357 H         1 <0>         0.0593
     43 H8          2.3618   -2.2928    6.7345 H         1 <0>         0.0841
     44 H9          3.6813   -3.3988    6.3690 H         1 <0>         0.0679
     45 H10         2.3679    0.5618    3.7197 H         1 <0>         0.0826
     46 H11         3.7232   -0.5081    3.3711 H         1 <0>         0.0383
     47 H12        -2.4838    3.0348    3.2965 H         1 <0>         0.0556
     48 H13        -1.9724    2.3804    1.7391 H         1 <0>         0.0415
     49 H14         1.7211   -3.4548    4.7590 H         1 <0>         0.0851
     50 H15         0.4108    2.4697    2.4442 H         1 <0>         0.0639
     51 H16         5.0063   -1.5479    5.3937 H         1 <0>         0.0584
     52 H17        -0.3231    4.4358    1.2871 H         1 <0>         0.0401
     53 H18        -1.1718    5.0598    2.7148 H         1 <0>         0.0440
     54 H19         0.6017    5.0127    2.6870 H         1 <0>         0.0459
     55 H20         4.2777   -1.8006    8.1367 H         1 <0>         0.0456
     56 H21         5.7602   -1.1000    7.4588 H         1 <0>         0.0366
     57 H22         4.3590   -0.0627    7.7891 H         1 <0>         0.0474
     58 H23        -0.2231   -5.5016    1.2219 H         1 <0>         0.0800
     59 H24        -0.3698   -5.3992    2.9795 H         1 <0>         0.0681
     60 H25         0.1357   -3.0322    1.0943 H         1 <0>         0.0740
     61 H26         1.3654   -3.8328    2.0643 H         1 <0>         0.0631
     62 H27        -2.3852   -3.9376    2.7441 H         1 <0>         0.0970
     63 H28        -2.5962   -5.4991    1.9351 H         1 <0>         0.0725
     64 H29         0.1003   -3.1895    4.1787 H         1 <0>         0.0839
     65 H30        -2.3965    0.4186    3.0229 H         1 <0>         0.4531
     66 H31        -3.1828   -2.6459   -1.5536 H         1 <0>         0.4798
     67 H32        -4.8760   -2.6807   -1.1731 H         1 <0>         0.4881
     68 H33        -4.5434   -4.3726    2.0184 H         1 <0>         0.4801
     69 H34        -5.6673   -3.6767    0.8868 H         1 <0>         0.4806
     70 H35        -1.5893   -3.6253    0.0283 H         1 <0>         0.4689
     71 H36        -1.6042   -1.6955    2.2078 H         1 <0>         0.4505
     72 H37         4.1809   -5.2504    3.4059 H         1 <0>         0.4443
@<TRIPOS>BOND
     1    1    2 ar
     2    1    3 ar
     3    2    4 ar
     4    3    6 ar
     5    4    5 ar
     6    4   10 1
     7    5    6 ar
     8    5   24 1
     9    6   35 1
    10    7   15 1
    11    7   30 2
    12    7   34 1
    13    8   23 1
    14    8   25 am
    15    8   31 2
    16    9   26 1
    17    9   27 1
    18    9   28 1
    19   10   16 1
    20   11   13 1
    21   11   17 1
    22   12   15 1
    23   12   17 1
    24   13   25 1
    25   14   16 1
    26   14   24 1
    27   15   25 1
    28   16   18 1
    29   17   19 1
    30   20   21 1
    31   20   22 1
    32   21   23 1
    33   22   28 1
    34   23   29 1
    35   29   35 1
    36   32   35 2
    37   33   35 2
    38    1   36 1
    39    2   37 1
    40    3   38 1
    41   10   39 1
    42   10   40 1
    43   11   41 1
    44   11   42 1
    45   12   43 1
    46   12   44 1
    47   13   45 1
    48   13   46 1
    49   14   47 1
    50   14   48 1
    51   15   49 1
    52   16   50 1
    53   17   51 1
    54   18   52 1
    55   18   53 1
    56   18   54 1
    57   19   55 1
    58   19   56 1
    59   19   57 1
    60   20   58 1
    61   20   59 1
    62   21   60 1
    63   21   61 1
    64   22   62 1
    65   22   63 1
    66   23   64 1
    67   24   65 1
    68   26   66 1
    69   26   67 1
    70   27   68 1
    71   27   69 1
    72   28   70 1
    73   29   71 1
    74   34   72 1
@<TRIPOS>MOLECULE
1dwc_ligand_364
   72    74     0     0     0
SMALL
USER_CHARGES

mmff94s_NoEstat = 83.27
@<TRIPOS>ATOM
      1 C1         -2.2959   -2.3538    7.8119 C.ar      1 <0>        -0.1945
      2 C2         -2.6720   -1.0237    7.9869 C.ar      1 <0>        -0.0294
      3 C3         -2.3070   -2.9163    6.5390 C.ar      1 <0>        -0.0143
      4 C4         -3.0584   -0.2458    6.8861 C.ar      1 <0>        -0.1552
      5 C5         -3.1002   -0.8160    5.5982 C.ar      1 <0>         0.3076
      6 C6         -2.7033   -2.1518    5.4404 C.ar      1 <0>        -0.4908
      7 C7          2.0323   -3.0842    5.9821 C.2       1 <0>         0.5994
      8 C8          0.8654   -1.4427    3.2413 C.2       1 <0>         0.6462
      9 C9          1.5497   -7.0495    4.2712 C.cat     1 <0>         0.6305
     10 C10        -3.4700    1.1919    7.0953 C.3       1 <0>        -0.0319
     11 C11         3.0911    0.4998    5.4298 C.3       1 <0>        -0.0918
     12 C12         1.5534   -0.8369    6.8842 C.3       1 <0>        -0.0841
     13 C13         2.8818   -0.5022    4.3015 C.3       1 <0>         0.0870
     14 C14        -4.0628    1.2474    4.6598 C.3       1 <0>         0.2023
     15 C15         1.2754   -1.7924    5.7207 C.3       1 <0>         0.0778
     16 C16        -3.3611    2.0019    5.7939 C.3       1 <0>        -0.0746
     17 C17         2.9339   -0.1724    6.7962 C.3       1 <0>        -0.0681
     18 C18        -3.9527    3.3976    5.9715 C.3       1 <0>        -0.0944
     19 C19         3.1216    0.8403    7.9242 C.3       1 <0>        -0.0918
     20 C20         1.7689   -4.0083    2.0091 C.3       1 <0>        -0.1192
     21 C21         0.3004   -3.5693    2.0376 C.3       1 <0>        -0.0916
     22 C22         2.1396   -4.8550    3.2204 C.3       1 <0>         0.1883
     23 C23        -0.0078   -2.6730    3.2260 C.3       1 <0>         0.1952
     24 N1         -3.4782   -0.0694    4.4890 N.pl3     1 <0>        -0.7670
     25 N2          1.5999   -1.2067    4.4091 N.am      1 <0>        -0.4509
     26 N3          0.7843   -8.2104    4.3089 N.pl3     1 <0>        -0.8477
     27 N4          2.5289   -6.8514    5.2386 N.pl3     1 <0>        -0.8633
     28 N5          1.3547   -6.0796    3.2820 N.pl3     1 <0>        -0.7419
     29 N6         -1.3760   -2.1385    3.1042 N.pl3     1 <0>        -0.8860
     30 O1          3.1450   -3.3455    5.5497 O.2       1 <0>        -0.5199
     31 O2          0.8891   -0.7105    2.2483 O.2       1 <0>        -0.6131
     32 O3         -2.3304   -4.3295    4.0644 O.2       1 <0>        -0.6576
     33 O4         -3.9087   -2.5768    3.1921 O.2       1 <0>        -0.6482
     34 O5          1.3022   -3.9170    6.7635 O.3       1 <0>        -0.6303
     35 S1         -2.6746   -2.9347    3.8647 S.o2      1 <0>         1.5193
     36 H1         -1.9909   -2.9498    8.6676 H         1 <0>         0.1426
     37 H2         -2.6574   -0.5917    8.9847 H         1 <0>         0.1398
     38 H3         -2.0103   -3.9495    6.3897 H         1 <0>         0.1599
     39 H4         -4.5027    1.2042    7.4664 H         1 <0>         0.0574
     40 H5         -2.8343    1.6552    7.8598 H         1 <0>         0.0629
     41 H6          4.0885    0.9467    5.3426 H         1 <0>         0.0614
     42 H7          2.3630    1.3153    5.3324 H         1 <0>         0.0593
     43 H8          0.7851   -0.0517    6.8776 H         1 <0>         0.0841
     44 H9          1.4567   -1.3607    7.8437 H         1 <0>         0.0679
     45 H10         2.9560    0.0148    3.3392 H         1 <0>         0.0826
     46 H11         3.6704   -1.2643    4.3172 H         1 <0>         0.0383
     47 H12        -5.1346    1.1449    4.8705 H         1 <0>         0.0556
     48 H13        -3.9688    1.8032    3.7203 H         1 <0>         0.0415
     49 H14         0.2160   -2.0663    5.7460 H         1 <0>         0.0851
     50 H15        -2.2992    2.1152    5.5368 H         1 <0>         0.0639
     51 H16         3.7104   -0.9392    6.9078 H         1 <0>         0.0584
     52 H17        -3.6607    4.0473    5.1410 H         1 <0>         0.0401
     53 H18        -5.0453    3.3508    6.0047 H         1 <0>         0.0440
     54 H19        -3.5987    3.8493    6.9030 H         1 <0>         0.0459
     55 H20         2.2527    0.8404    8.5891 H         1 <0>         0.0456
     56 H21         4.0086    0.5961    8.5164 H         1 <0>         0.0366
     57 H22         3.2450    1.8489    7.5186 H         1 <0>         0.0474
     58 H23         1.9621   -4.5788    1.0926 H         1 <0>         0.0800
     59 H24         2.4183   -3.1256    1.9878 H         1 <0>         0.0681
     60 H25        -0.3448   -4.4577    2.0448 H         1 <0>         0.0740
     61 H26         0.0666   -3.0218    1.1158 H         1 <0>         0.0631
     62 H27         1.9858   -4.3013    4.1521 H         1 <0>         0.0970
     63 H28         3.1948   -5.1415    3.1673 H         1 <0>         0.0725
     64 H29         0.1003   -3.1895    4.1787 H         1 <0>         0.0839
     65 H30        -3.5654   -0.5418    3.5977 H         1 <0>         0.4531
     66 H31         0.0565   -8.3968    3.6242 H         1 <0>         0.4798
     67 H32         0.9323   -8.9105    5.0322 H         1 <0>         0.4881
     68 H33         3.1063   -6.0140    5.2405 H         1 <0>         0.4801
     69 H34         2.6942   -7.5396    5.9692 H         1 <0>         0.4806
     70 H35         0.6284   -6.2533    2.5856 H         1 <0>         0.4689
     71 H36        -1.4476   -1.1318    2.9219 H         1 <0>         0.4505
     72 H37         1.7734   -4.7586    6.9424 H         1 <0>         0.4443
@<TRIPOS>BOND
     1    1    2 ar
     2    1    3 ar
     3    2    4 ar
     4    3    6 ar
     5    4    5 ar
     6    4   10 1
     7    5    6 ar
     8    5   24 1
     9    6   35 1
    10    7   15 1
    11    7   30 2
    12    7   34 1
    13    8   23 1
    14    8   25 am
    15    8   31 2
    16    9   26 1
    17    9   27 1
    18    9   28 1
    19   10   16 1
    20   11   13 1
    21   11   17 1
    22   12   15 1
    23   12   17 1
    24   13   25 1
    25   14   16 1
    26   14   24 1
    27   15   25 1
    28   16   18 1
    29   17   19 1
    30   20   21 1
    31   20   22 1
    32   21   23 1
    33   22   28 1
    34   23   29 1
    35   29   35 1
    36   32   35 2
    37   33   35 2
    38    1   36 1
    39    2   37 1
    40    3   38 1
    41   10   39 1
    42   10   40 1
    43   11   41 1
    44   11   42 1
    45   12   43 1
    46   12   44 1
    47   13   45 1
    48   13   46 1
    49   14   47 1
    50   14   48 1
    51   15   49 1
    52   16   50 1
    53   17   51 1
    54   18   52 1
    55   18   53 1
    56   18   54 1
    57   19   55 1
    58   19   56 1
    59   19   57 1
    60   20   58 1
    61   20   59 1
    62   21   60 1
    63   21   61 1
    64   22   62 1
    65   22   63 1
    66   23   64 1
    67   24   65 1
    68   26   66 1
    69   26   67 1
    70   27   68 1
    71   27   69 1
    72   28   70 1
    73   29   71 1
    74   34   72 1
@<TRIPOS>MOLECULE
1dwc_ligand_365
   72    74     0     0     0
SMALL
USER_CHARGES

mmff94s_NoEstat = 83.31
@<TRIPOS>ATOM
      1 C1         -1.4072   -6.2841    0.5334 C.ar      1 <0>        -0.1945
      2 C2         -0.3050   -6.5010   -0.2908 C.ar      1 <0>        -0.0294
      3 C3         -1.2178   -5.9155    1.8618 C.ar      1 <0>        -0.0143
      4 C4          0.9961   -6.3538    0.2114 C.ar      1 <0>        -0.1552
      5 C5          1.1959   -5.9530    1.5470 C.ar      1 <0>         0.3076
      6 C6          0.0742   -5.7546    2.3651 C.ar      1 <0>        -0.4908
      7 C7          0.0474   -1.6003   -0.0563 C.2       1 <0>         0.5994
      8 C8          0.8654   -1.4427    3.2413 C.2       1 <0>         0.6462
      9 C9         -3.9804   -3.0789    0.6325 C.cat     1 <0>         0.6305
     10 C10         2.1776   -6.5853   -0.6996 C.3       1 <0>        -0.0319
     11 C11         2.7802    0.7752    1.0208 C.3       1 <0>        -0.0918
     12 C12         2.5085   -1.4277   -0.1368 C.3       1 <0>        -0.0841
     13 C13         1.5404    0.4804    1.8554 C.3       1 <0>         0.0870
     14 C14         3.6317   -5.8205    1.2015 C.3       1 <0>         0.2023
     15 C15         1.3165   -1.7600    0.7646 C.3       1 <0>         0.0778
     16 C16         3.4776   -6.8504    0.0772 C.3       1 <0>        -0.0746
     17 C17         2.7020    0.0809   -0.3413 C.3       1 <0>        -0.0681
     18 C18         3.5447   -8.2877    0.6061 C.3       1 <0>        -0.0944
     19 C19         3.9570    0.3602   -1.1659 C.3       1 <0>        -0.0918
     20 C20        -2.1115   -1.2711    3.3990 C.3       1 <0>        -0.1192
     21 C21        -1.3133   -2.4479    3.9716 C.3       1 <0>        -0.0916
     22 C22        -2.5427   -1.5156    1.9582 C.3       1 <0>         0.1883
     23 C23        -0.0078   -2.6730    3.2260 C.3       1 <0>         0.1952
     24 N1          2.4729   -5.8065    2.0741 N.pl3     1 <0>        -0.7670
     25 N2          1.2915   -0.9578    1.9994 N.am      1 <0>        -0.4509
     26 N3         -4.8018   -4.1986    0.5514 N.pl3     1 <0>        -0.8477
     27 N4         -3.7248   -2.3408   -0.5181 N.pl3     1 <0>        -0.8633
     28 N5         -3.4075   -2.6813    1.8454 N.pl3     1 <0>        -0.7419
     29 N6          0.7961   -3.6905    3.9267 N.pl3     1 <0>        -0.8860
     30 O1         -0.6384   -0.5898   -0.0988 O.2       1 <0>        -0.5199
     31 O2          1.1650   -0.9321    4.3240 O.2       1 <0>        -0.6131
     32 O3         -1.1034   -5.2783    4.6370 O.2       1 <0>        -0.6576
     33 O4          1.2668   -6.1189    4.6309 O.2       1 <0>        -0.6482
     34 O5         -0.2271   -2.7383   -0.7395 O.3       1 <0>        -0.6303
     35 S1          0.2254   -5.2894    4.0556 S.o2      1 <0>         1.5193
     36 H1         -2.4130   -6.4058    0.1405 H         1 <0>         0.1426
     37 H2         -0.4624   -6.7916   -1.3268 H         1 <0>         0.1398
     38 H3         -2.0688   -5.7496    2.5150 H         1 <0>         0.1599
     39 H4          1.9762   -7.4254   -1.3755 H         1 <0>         0.0574
     40 H5          2.3035   -5.6869   -1.3173 H         1 <0>         0.0629
     41 H6          2.8818    1.8586    0.8858 H         1 <0>         0.0614
     42 H7          3.6725    0.4327    1.5603 H         1 <0>         0.0593
     43 H8          3.4165   -1.8382    0.3259 H         1 <0>         0.0841
     44 H9          2.4035   -1.9216   -1.1111 H         1 <0>         0.0679
     45 H10         1.6443    0.9520    2.8381 H         1 <0>         0.0826
     46 H11         0.6509    0.9155    1.3839 H         1 <0>         0.0383
     47 H12         4.5279   -6.0341    1.7945 H         1 <0>         0.0556
     48 H13         3.7631   -4.8203    0.7705 H         1 <0>         0.0415
     49 H14         1.3647   -2.8230    1.0210 H         1 <0>         0.0851
     50 H15         4.3197   -6.7370   -0.6165 H         1 <0>         0.0639
     51 H16         1.8454    0.4816   -0.8972 H         1 <0>         0.0584
     52 H17         2.5943   -8.8034    0.4393 H         1 <0>         0.0401
     53 H18         4.3347   -8.8481    0.0972 H         1 <0>         0.0440
     54 H19         3.7555   -8.2927    1.6797 H         1 <0>         0.0459
     55 H20         4.2296   -0.5171   -1.7602 H         1 <0>         0.0456
     56 H21         3.7904    1.1997   -1.8474 H         1 <0>         0.0366
     57 H22         4.7987    0.6086   -0.5125 H         1 <0>         0.0474
     58 H23        -2.9980   -1.0942    4.0198 H         1 <0>         0.0800
     59 H24        -1.5025   -0.3604    3.4316 H         1 <0>         0.0681
     60 H25        -1.9335   -3.3536    3.9489 H         1 <0>         0.0740
     61 H26        -1.0849   -2.2531    5.0271 H         1 <0>         0.0631
     62 H27        -1.6765   -1.6664    1.3061 H         1 <0>         0.0970
     63 H28        -3.1019   -0.6522    1.5838 H         1 <0>         0.0725
     64 H29        -0.1638   -2.9774    2.1921 H         1 <0>         0.0839
     65 H30         2.5644   -5.4443    3.0154 H         1 <0>         0.4531
     66 H31        -5.0147   -4.7691    1.3653 H         1 <0>         0.4798
     67 H32        -5.2139   -4.4811   -0.3349 H         1 <0>         0.4881
     68 H33        -3.1288   -1.5169   -0.4944 H         1 <0>         0.4801
     69 H34        -4.1283   -2.6051   -1.4136 H         1 <0>         0.4806
     70 H35        -3.6137   -3.2432    2.6727 H         1 <0>         0.4689
     71 H36         1.8068   -3.5190    3.9555 H         1 <0>         0.4505
     72 H37        -1.0450   -2.6560   -1.2749 H         1 <0>         0.4443
@<TRIPOS>BOND
     1    1    2 ar
     2    1    3 ar
     3    2    4 ar
     4    3    6 ar
     5    4    5 ar
     6    4   10 1
     7    5    6 ar
     8    5   24 1
     9    6   35 1
    10    7   15 1
    11    7   30 2
    12    7   34 1
    13    8   23 1
    14    8   25 am
    15    8   31 2
    16    9   26 1
    17    9   27 1
    18    9   28 1
    19   10   16 1
    20   11   13 1
    21   11   17 1
    22   12   15 1
    23   12   17 1
    24   13   25 1
    25   14   16 1
    26   14   24 1
    27   15   25 1
    28   16   18 1
    29   17   19 1
    30   20   21 1
    31   20   22 1
    32   21   23 1
    33   22   28 1
    34   23   29 1
    35   29   35 1
    36   32   35 2
    37   33   35 2
    38    1   36 1
    39    2   37 1
    40    3   38 1
    41   10   39 1
    42   10   40 1
    43   11   41 1
    44   11   42 1
    45   12   43 1
    46   12   44 1
    47   13   45 1
    48   13   46 1
    49   14   47 1
    50   14   48 1
    51   15   49 1
    52   16   50 1
    53   17   51 1
    54   18   52 1
    55   18   53 1
    56   18   54 1
    57   19   55 1
    58   19   56 1
    59   19   57 1
    60   20   58 1
    61   20   59 1
    62   21   60 1
    63   21   61 1
    64   22   62 1
    65   22   63 1
    66   23   64 1
    67   24   65 1
    68   26   66 1
    69   26   67 1
    70   27   68 1
    71   27   69 1
    72   28   70 1
    73   29   71 1
    74   34   72 1
@<TRIPOS>MOLECULE
1dwc_ligand_366
   72    74     0     0     0
SMALL
USER_CHARGES

mmff94s_NoEstat = 83.57
@<TRIPOS>ATOM
      1 C1          4.5626   -6.2396   -3.1257 C.ar      1 <0>        -0.1945
      2 C2          3.6098   -7.1989   -2.7894 C.ar      1 <0>        -0.0294
      3 C3          4.1569   -4.9818   -3.5618 C.ar      1 <0>        -0.0143
      4 C4          2.2424   -6.9031   -2.8839 C.ar      1 <0>        -0.1552
      5 C5          1.8233   -5.6419   -3.3522 C.ar      1 <0>         0.3076
      6 C6          2.7974   -4.6848   -3.6711 C.ar      1 <0>        -0.4908
      7 C7          0.5484   -0.8946    1.4535 C.2       1 <0>         0.5994
      8 C8          2.9466   -1.3973   -0.6457 C.2       1 <0>         0.6462
      9 C9          6.5364    0.5009   -5.9324 C.cat     1 <0>         0.6305
     10 C10         1.2236   -7.9574   -2.5224 C.3       1 <0>        -0.0319
     11 C11         1.0071   -4.1523    1.0299 C.3       1 <0>        -0.0918
     12 C12         1.8830   -2.5004    2.7729 C.3       1 <0>        -0.0841
     13 C13         2.2320   -3.6460    0.2757 C.3       1 <0>         0.0870
     14 C14        -0.5345   -6.3513   -3.3071 C.3       1 <0>         0.2023
     15 C15         1.9200   -1.5343    1.5913 C.3       1 <0>         0.0778
     16 C16        -0.1411   -7.3305   -2.1962 C.3       1 <0>        -0.0746
     17 C17         1.0079   -3.7392    2.5107 C.3       1 <0>        -0.0681
     18 C18        -1.2052   -8.4095   -2.0149 C.3       1 <0>        -0.0944
     19 C19         1.4463   -4.8953    3.4115 C.3       1 <0>        -0.0918
     20 C20         4.0666    0.0061   -3.0917 C.3       1 <0>        -0.1192
     21 C21         4.5564   -1.3488   -2.5679 C.3       1 <0>        -0.0916
     22 C22         5.1498    0.7503   -3.8628 C.3       1 <0>         0.1883
     23 C23         3.4544   -2.1251   -1.8653 C.3       1 <0>         0.1952
     24 N1          0.4755   -5.3205   -3.4555 N.pl3     1 <0>        -0.7670
     25 N2          2.3654   -2.1840    0.3531 N.am      1 <0>        -0.4509
     26 N3          6.9409   -0.2356   -7.0409 N.pl3     1 <0>        -0.8477
     27 N4          7.0867    1.7598   -5.7173 N.pl3     1 <0>        -0.8633
     28 N5          5.5893    0.0019   -5.0317 N.pl3     1 <0>        -0.7419
     29 N6          2.2741   -2.2179   -2.7432 N.pl3     1 <0>        -0.8860
     30 O1         -0.0257   -0.2688    2.3322 O.2       1 <0>        -0.5199
     31 O2          3.0580   -0.1705   -0.5795 O.2       1 <0>        -0.6131
     32 O3          3.4786   -2.5500   -4.9955 O.2       1 <0>        -0.6576
     33 O4          1.0452   -3.1536   -4.7996 O.2       1 <0>        -0.6482
     34 O5          0.0400   -1.1141    0.2163 O.3       1 <0>        -0.6303
     35 S1          2.3700   -3.0669   -4.2159 S.o2      1 <0>         1.5193
     36 H1          5.6208   -6.4721   -3.0440 H         1 <0>         0.1426
     37 H2          3.9359   -8.1780   -2.4467 H         1 <0>         0.1398
     38 H3          4.8901   -4.2246   -3.8207 H         1 <0>         0.1599
     39 H4          1.1317   -8.6518   -3.3671 H         1 <0>         0.0574
     40 H5          1.5711   -8.5308   -1.6542 H         1 <0>         0.0629
     41 H6          0.1116   -3.7326    0.5525 H         1 <0>         0.0614
     42 H7          0.9264   -5.2409    0.9288 H         1 <0>         0.0593
     43 H8          2.9117   -2.8226    2.9853 H         1 <0>         0.0841
     44 H9          1.5267   -1.9929    3.6785 H         1 <0>         0.0679
     45 H10         3.1493   -4.0774    0.6933 H         1 <0>         0.0826
     46 H11         2.1726   -3.9558   -0.7722 H         1 <0>         0.0383
     47 H12        -0.6578   -6.8796   -4.2606 H         1 <0>         0.0556
     48 H13        -1.4944   -5.8780   -3.0722 H         1 <0>         0.0415
     49 H14         2.6095   -0.7128    1.8202 H         1 <0>         0.0851
     50 H15        -0.0578   -6.7761   -1.2516 H         1 <0>         0.0639
     51 H16        -0.0273   -3.5034    2.7887 H         1 <0>         0.0584
     52 H17        -2.1023   -7.9902   -1.5497 H         1 <0>         0.0401
     53 H18        -1.4866   -8.8384   -2.9813 H         1 <0>         0.0440
     54 H19        -0.8307   -9.2152   -1.3763 H         1 <0>         0.0459
     55 H20         0.5753   -5.4296    3.8024 H         1 <0>         0.0456
     56 H21         2.0638   -5.6051    2.8530 H         1 <0>         0.0366
     57 H22         2.0303   -4.5225    4.2583 H         1 <0>         0.0474
     58 H23         3.1961   -0.1462   -3.7411 H         1 <0>         0.0800
     59 H24         3.7428    0.6319   -2.2522 H         1 <0>         0.0681
     60 H25         5.4094   -1.1917   -1.8946 H         1 <0>         0.0740
     61 H26         4.9285   -1.9502   -3.4070 H         1 <0>         0.0631
     62 H27         6.0226    0.9442   -3.2312 H         1 <0>         0.0970
     63 H28         4.7647    1.7133   -4.2128 H         1 <0>         0.0725
     64 H29         3.7703   -3.1244   -1.5692 H         1 <0>         0.0839
     65 H30         0.2230   -4.4307   -3.8677 H         1 <0>         0.4531
     66 H31         6.5676   -1.1605   -7.2371 H         1 <0>         0.4798
     67 H32         7.6308    0.1346   -7.6906 H         1 <0>         0.4881
     68 H33         6.8135    2.3249   -4.9169 H         1 <0>         0.4801
     69 H34         7.7763    2.1491   -6.3557 H         1 <0>         0.4806
     70 H35         5.2033   -0.9252   -5.2162 H         1 <0>         0.4689
     71 H36         1.3641   -2.1281   -2.2790 H         1 <0>         0.4505
     72 H37        -0.8473   -0.7100    0.1079 H         1 <0>         0.4443
@<TRIPOS>BOND
     1    1    2 ar
     2    1    3 ar
     3    2    4 ar
     4    3    6 ar
     5    4    5 ar
     6    4   10 1
     7    5    6 ar
     8    5   24 1
     9    6   35 1
    10    7   15 1
    11    7   30 2
    12    7   34 1
    13    8   23 1
    14    8   25 am
    15    8   31 2
    16    9   26 1
    17    9   27 1
    18    9   28 1
    19   10   16 1
    20   11   13 1
    21   11   17 1
    22   12   15 1
    23   12   17 1
    24   13   25 1
    25   14   16 1
    26   14   24 1
    27   15   25 1
    28   16   18 1
    29   17   19 1
    30   20   21 1
    31   20   22 1
    32   21   23 1
    33   22   28 1
    34   23   29 1
    35   29   35 1
    36   32   35 2
    37   33   35 2
    38    1   36 1
    39    2   37 1
    40    3   38 1
    41   10   39 1
    42   10   40 1
    43   11   41 1
    44   11   42 1
    45   12   43 1
    46   12   44 1
    47   13   45 1
    48   13   46 1
    49   14   47 1
    50   14   48 1
    51   15   49 1
    52   16   50 1
    53   17   51 1
    54   18   52 1
    55   18   53 1
    56   18   54 1
    57   19   55 1
    58   19   56 1
    59   19   57 1
    60   20   58 1
    61   20   59 1
    62   21   60 1
    63   21   61 1
    64   22   62 1
    65   22   63 1
    66   23   64 1
    67   24   65 1
    68   26   66 1
    69   26   67 1
    70   27   68 1
    71   27   69 1
    72   28   70 1
    73   29   71 1
    74   34   72 1
@<TRIPOS>MOLECULE
1dwc_ligand_367
   72    74     0     0     0
SMALL
USER_CHARGES

mmff94s_NoEstat = 83.62
@<TRIPOS>ATOM
      1 C1         -1.5516   -4.4277    7.3298 C.ar      1 <0>        -0.1945
      2 C2         -2.3348   -5.5104    6.9352 C.ar      1 <0>        -0.0294
      3 C3         -1.5385   -3.2654    6.5644 C.ar      1 <0>        -0.0143
      4 C4         -3.1142   -5.4347    5.7720 C.ar      1 <0>        -0.1552
      5 C5         -3.0840   -4.2723    4.9761 C.ar      1 <0>         0.3076
      6 C6         -2.3015   -3.1877    5.3982 C.ar      1 <0>        -0.4908
      7 C7          3.7233   -2.4449    4.7893 C.2       1 <0>         0.5994
      8 C8          0.8654   -1.4427    3.2413 C.2       1 <0>         0.6462
      9 C9          0.2237   -3.7376   -2.9912 C.cat     1 <0>         0.6305
     10 C10        -3.9512   -6.6204    5.3554 C.3       1 <0>        -0.0319
     11 C11         1.7658    0.4222    6.2790 C.3       1 <0>        -0.0918
     12 C12         2.2228   -2.0030    6.6989 C.3       1 <0>        -0.0841
     13 C13         1.9003    0.1799    4.7810 C.3       1 <0>         0.0870
     14 C14        -4.5113   -5.3376    3.2753 C.3       1 <0>         0.2023
     15 C15         2.2690   -2.2605    5.1905 C.3       1 <0>         0.0778
     16 C16        -5.0831   -6.2018    4.4040 C.3       1 <0>        -0.0746
     17 C17         2.6202   -0.5689    7.0736 C.3       1 <0>        -0.0681
     18 C18        -5.8039   -7.4257    3.8454 C.3       1 <0>        -0.0944
     19 C19         2.4647   -0.3375    8.5754 C.3       1 <0>        -0.0918
     20 C20         0.0249   -2.8727    0.7002 C.3       1 <0>        -0.1192
     21 C21         0.3004   -3.5693    2.0376 C.3       1 <0>        -0.0916
     22 C22         0.2602   -3.7963   -0.4886 C.3       1 <0>         0.1883
     23 C23        -0.0078   -2.6730    3.2260 C.3       1 <0>         0.1952
     24 N1         -3.8463   -4.1684    3.8190 N.pl3     1 <0>        -0.7670
     25 N2          1.5999   -1.2067    4.4091 N.am      1 <0>        -0.4509
     26 N3         -0.0152   -3.0669   -4.1862 N.pl3     1 <0>        -0.8477
     27 N4          0.6744   -5.0526   -3.0302 N.pl3     1 <0>        -0.8633
     28 N5          0.0202   -3.1173   -1.7538 N.pl3     1 <0>        -0.7419
     29 N6         -1.3760   -2.1385    3.1042 N.pl3     1 <0>        -0.8860
     30 O1          4.4523   -1.5599    4.3665 O.2       1 <0>        -0.5199
     31 O2          0.8891   -0.7105    2.2483 O.2       1 <0>        -0.6131
     32 O3         -3.5960   -1.3232    4.1243 O.2       1 <0>        -0.6576
     33 O4         -1.4314   -0.7555    5.2719 O.2       1 <0>        -0.6482
     34 O5          4.1079   -3.7331    4.9617 O.3       1 <0>        -0.6303
     35 S1         -2.2397   -1.6774    4.4970 S.o2      1 <0>         1.5193
     36 H1         -0.9549   -4.4896    8.2356 H         1 <0>         0.1426
     37 H2         -2.3412   -6.4135    7.5409 H         1 <0>         0.1398
     38 H3         -0.9370   -2.4135    6.8653 H         1 <0>         0.1599
     39 H4         -3.2943   -7.3516    4.8675 H         1 <0>         0.0574
     40 H5         -4.3865   -7.1001    6.2407 H         1 <0>         0.0629
     41 H6          2.0669    1.4503    6.5123 H         1 <0>         0.0614
     42 H7          0.7128    0.3207    6.5714 H         1 <0>         0.0593
     43 H8          1.1978   -2.1858    7.0494 H         1 <0>         0.0841
     44 H9          2.8666   -2.7151    7.2306 H         1 <0>         0.0679
     45 H10         1.2456    0.8722    4.2416 H         1 <0>         0.0826
     46 H11         2.9258    0.3867    4.4518 H         1 <0>         0.0383
     47 H12        -3.7986   -5.9137    2.6721 H         1 <0>         0.0556
     48 H13        -5.3138   -5.0110    2.6047 H         1 <0>         0.0415
     49 H14         1.7884   -3.2235    4.9909 H         1 <0>         0.0851
     50 H15        -5.8148   -5.6064    4.9667 H         1 <0>         0.0639
     51 H16         3.6763   -0.4106    6.8224 H         1 <0>         0.0584
     52 H17        -6.7464   -7.1341    3.3725 H         1 <0>         0.0401
     53 H18        -5.1841   -7.9286    3.0971 H         1 <0>         0.0440
     54 H19        -6.0259   -8.1390    4.6448 H         1 <0>         0.0459
     55 H20         2.1532   -1.2591    9.0761 H         1 <0>         0.0456
     56 H21         3.4121   -0.0103    9.0142 H         1 <0>         0.0366
     57 H22         1.7112    0.4316    8.7697 H         1 <0>         0.0474
     58 H23        -1.0105   -2.5120    0.6824 H         1 <0>         0.0800
     59 H24         0.6776   -1.9980    0.5976 H         1 <0>         0.0681
     60 H25         1.3460   -3.9033    2.0652 H         1 <0>         0.0740
     61 H26        -0.3175   -4.4733    2.1109 H         1 <0>         0.0631
     62 H27        -0.3909   -4.6751   -0.4416 H         1 <0>         0.0970
     63 H28         1.2981   -4.1440   -0.4920 H         1 <0>         0.0725
     64 H29         0.1003   -3.1895    4.1787 H         1 <0>         0.0839
     65 H30        -3.7341   -3.3447    3.2409 H         1 <0>         0.4531
     66 H31        -0.3470   -2.1063   -4.2064 H         1 <0>         0.4798
     67 H32         0.1347   -3.5257   -5.0818 H         1 <0>         0.4881
     68 H33         0.8589   -5.5723   -2.1756 H         1 <0>         0.4801
     69 H34         0.8324   -5.5290   -3.9149 H         1 <0>         0.4806
     70 H35        -0.3110   -2.1514   -1.7574 H         1 <0>         0.4689
     71 H36        -1.6042   -1.6955    2.2078 H         1 <0>         0.4505
     72 H37         5.0446   -3.8732    4.7061 H         1 <0>         0.4443
@<TRIPOS>BOND
     1    1    2 ar
     2    1    3 ar
     3    2    4 ar
     4    3    6 ar
     5    4    5 ar
     6    4   10 1
     7    5    6 ar
     8    5   24 1
     9    6   35 1
    10    7   15 1
    11    7   30 2
    12    7   34 1
    13    8   23 1
    14    8   25 am
    15    8   31 2
    16    9   26 1
    17    9   27 1
    18    9   28 1
    19   10   16 1
    20   11   13 1
    21   11   17 1
    22   12   15 1
    23   12   17 1
    24   13   25 1
    25   14   16 1
    26   14   24 1
    27   15   25 1
    28   16   18 1
    29   17   19 1
    30   20   21 1
    31   20   22 1
    32   21   23 1
    33   22   28 1
    34   23   29 1
    35   29   35 1
    36   32   35 2
    37   33   35 2
    38    1   36 1
    39    2   37 1
    40    3   38 1
    41   10   39 1
    42   10   40 1
    43   11   41 1
    44   11   42 1
    45   12   43 1
    46   12   44 1
    47   13   45 1
    48   13   46 1
    49   14   47 1
    50   14   48 1
    51   15   49 1
    52   16   50 1
    53   17   51 1
    54   18   52 1
    55   18   53 1
    56   18   54 1
    57   19   55 1
    58   19   56 1
    59   19   57 1
    60   20   58 1
    61   20   59 1
    62   21   60 1
    63   21   61 1
    64   22   62 1
    65   22   63 1
    66   23   64 1
    67   24   65 1
    68   26   66 1
    69   26   67 1
    70   27   68 1
    71   27   69 1
    72   28   70 1
    73   29   71 1
    74   34   72 1
@<TRIPOS>MOLECULE
1dwc_ligand_368
   72    74     0     0     0
SMALL
USER_CHARGES

mmff94s_NoEstat = 83.63
@<TRIPOS>ATOM
      1 C1          2.5114   -5.6807   -0.0973 C.ar      1 <0>        -0.1945
      2 C2          3.8673   -5.6123    0.2155 C.ar      1 <0>        -0.0294
      3 C3          1.5608   -5.5920    0.9152 C.ar      1 <0>        -0.0143
      4 C4          4.2812   -5.4584    1.5465 C.ar      1 <0>        -0.1552
      5 C5          3.3248   -5.3390    2.5738 C.ar      1 <0>         0.3076
      6 C6          1.9651   -5.4258    2.2408 C.ar      1 <0>        -0.4908
      7 C7          0.0474   -1.6003   -0.0563 C.2       1 <0>         0.5994
      8 C8          0.8654   -1.4427    3.2413 C.2       1 <0>         0.6462
      9 C9         -4.0845   -0.2977    6.4931 C.cat     1 <0>         0.6305
     10 C10         5.7550   -5.3781    1.8646 C.3       1 <0>        -0.0319
     11 C11         2.7802    0.7752    1.0208 C.3       1 <0>        -0.0918
     12 C12         2.5085   -1.4277   -0.1368 C.3       1 <0>        -0.0841
     13 C13         1.5404    0.4804    1.8554 C.3       1 <0>         0.0870
     14 C14         5.0872   -4.9119    4.2416 C.3       1 <0>         0.2023
     15 C15         1.3165   -1.7600    0.7646 C.3       1 <0>         0.0778
     16 C16         6.0568   -5.6843    3.3406 C.3       1 <0>        -0.0746
     17 C17         2.7020    0.0809   -0.3413 C.3       1 <0>        -0.0681
     18 C18         6.0291   -7.1895    3.6296 C.3       1 <0>        -0.0944
     19 C19         3.9570    0.3602   -1.1659 C.3       1 <0>        -0.0918
     20 C20        -2.1115   -1.2711    3.3990 C.3       1 <0>        -0.1192
     21 C21        -1.3133   -2.4479    3.9716 C.3       1 <0>        -0.0916
     22 C22        -3.3821   -0.9970    4.1941 C.3       1 <0>         0.1883
     23 C23        -0.0078   -2.6730    3.2260 C.3       1 <0>         0.1952
     24 N1          3.7051   -5.1932    3.9020 N.pl3     1 <0>        -0.7670
     25 N2          1.2915   -0.9578    1.9994 N.am      1 <0>        -0.4509
     26 N3         -3.7764    0.0291    7.8096 N.pl3     1 <0>        -0.8477
     27 N4         -5.4128   -0.2742    6.0819 N.pl3     1 <0>        -0.8633
     28 N5         -3.0875   -0.6486    5.5765 N.pl3     1 <0>        -0.7419
     29 N6          0.7961   -3.6905    3.9267 N.pl3     1 <0>        -0.8860
     30 O1         -0.0198   -1.7048   -1.2720 O.2       1 <0>        -0.5199
     31 O2          1.1650   -0.9321    4.3240 O.2       1 <0>        -0.6131
     32 O3         -0.5724   -5.5617    2.8045 O.2       1 <0>        -0.6576
     33 O4          1.1151   -6.1600    4.5705 O.2       1 <0>        -0.6482
     34 O5         -1.0094   -1.3214    0.7454 O.3       1 <0>        -0.6303
     35 S1          0.6998   -5.3249    3.4597 S.o2      1 <0>         1.5193
     36 H1          2.1966   -5.8064   -1.1298 H         1 <0>         0.1426
     37 H2          4.6032   -5.6854   -0.5818 H         1 <0>         0.1398
     38 H3          0.5018   -5.6500    0.6842 H         1 <0>         0.1599
     39 H4          6.3190   -6.0672    1.2240 H         1 <0>         0.0574
     40 H5          6.0915   -4.3598    1.6315 H         1 <0>         0.0629
     41 H6          2.8818    1.8586    0.8858 H         1 <0>         0.0614
     42 H7          3.6725    0.4327    1.5603 H         1 <0>         0.0593
     43 H8          3.4165   -1.8382    0.3259 H         1 <0>         0.0841
     44 H9          2.4035   -1.9216   -1.1111 H         1 <0>         0.0679
     45 H10         1.6443    0.9520    2.8381 H         1 <0>         0.0826
     46 H11         0.6509    0.9155    1.3839 H         1 <0>         0.0383
     47 H12         5.2594   -5.1654    5.2935 H         1 <0>         0.0556
     48 H13         5.2655   -3.8345    4.1379 H         1 <0>         0.0415
     49 H14         1.3647   -2.8230    1.0210 H         1 <0>         0.0851
     50 H15         7.0777   -5.3469    3.5580 H         1 <0>         0.0639
     51 H16         1.8454    0.4816   -0.8972 H         1 <0>         0.0584
     52 H17         5.6697   -7.7420    2.7563 H         1 <0>         0.0401
     53 H18         7.0311   -7.5518    3.8781 H         1 <0>         0.0440
     54 H19         5.3653   -7.4070    4.4717 H         1 <0>         0.0459
     55 H20         4.2296   -0.5171   -1.7602 H         1 <0>         0.0456
     56 H21         3.7904    1.1997   -1.8474 H         1 <0>         0.0366
     57 H22         4.7987    0.6086   -0.5125 H         1 <0>         0.0474
     58 H23        -1.4838   -0.3719    3.3933 H         1 <0>         0.0800
     59 H24        -2.3885   -1.4831    2.3599 H         1 <0>         0.0681
     60 H25        -1.9335   -3.3536    3.9489 H         1 <0>         0.0740
     61 H26        -1.0849   -2.2531    5.0271 H         1 <0>         0.0631
     62 H27        -4.0449   -1.8681    4.1933 H         1 <0>         0.0970
     63 H28        -3.9265   -0.1572    3.7507 H         1 <0>         0.0725
     64 H29        -0.1638   -2.9774    2.1921 H         1 <0>         0.0839
     65 H30         2.9820   -5.0361    4.5933 H         1 <0>         0.4531
     66 H31        -2.8204    0.0236    8.1552 H         1 <0>         0.4798
     67 H32        -4.5077    0.2825    8.4699 H         1 <0>         0.4881
     68 H33        -5.6732   -0.5076    5.1268 H         1 <0>         0.4801
     69 H34        -6.1589   -0.0219    6.7256 H         1 <0>         0.4806
     70 H35        -2.1217   -0.6567    5.9080 H         1 <0>         0.4689
     71 H36         1.6533   -3.3509    4.3757 H         1 <0>         0.4505
     72 H37        -1.8390   -1.2127    0.2333 H         1 <0>         0.4443
@<TRIPOS>BOND
     1    1    2 ar
     2    1    3 ar
     3    2    4 ar
     4    3    6 ar
     5    4    5 ar
     6    4   10 1
     7    5    6 ar
     8    5   24 1
     9    6   35 1
    10    7   15 1
    11    7   30 2
    12    7   34 1
    13    8   23 1
    14    8   25 am
    15    8   31 2
    16    9   26 1
    17    9   27 1
    18    9   28 1
    19   10   16 1
    20   11   13 1
    21   11   17 1
    22   12   15 1
    23   12   17 1
    24   13   25 1
    25   14   16 1
    26   14   24 1
    27   15   25 1
    28   16   18 1
    29   17   19 1
    30   20   21 1
    31   20   22 1
    32   21   23 1
    33   22   28 1
    34   23   29 1
    35   29   35 1
    36   32   35 2
    37   33   35 2
    38    1   36 1
    39    2   37 1
    40    3   38 1
    41   10   39 1
    42   10   40 1
    43   11   41 1
    44   11   42 1
    45   12   43 1
    46   12   44 1
    47   13   45 1
    48   13   46 1
    49   14   47 1
    50   14   48 1
    51   15   49 1
    52   16   50 1
    53   17   51 1
    54   18   52 1
    55   18   53 1
    56   18   54 1
    57   19   55 1
    58   19   56 1
    59   19   57 1
    60   20   58 1
    61   20   59 1
    62   21   60 1
    63   21   61 1
    64   22   62 1
    65   22   63 1
    66   23   64 1
    67   24   65 1
    68   26   66 1
    69   26   67 1
    70   27   68 1
    71   27   69 1
    72   28   70 1
    73   29   71 1
    74   34   72 1
@<TRIPOS>MOLECULE
1dwc_ligand_369
   72    74     0     0     0
SMALL
USER_CHARGES

mmff94s_NoEstat = 83.65
@<TRIPOS>ATOM
      1 C1          8.0619   -4.1173   -4.2286 C.ar      1 <0>        -0.1945
      2 C2          7.9046   -3.2841   -5.3341 C.ar      1 <0>        -0.0294
      3 C3          7.5160   -3.7522   -3.0018 C.ar      1 <0>        -0.0143
      4 C4          7.2019   -2.0761   -5.2175 C.ar      1 <0>        -0.1552
      5 C5          6.6218   -1.7131   -3.9862 C.ar      1 <0>         0.3076
      6 C6          6.8044   -2.5574   -2.8813 C.ar      1 <0>        -0.4908
      7 C7          3.7685    1.5685    0.3235 C.2       1 <0>         0.5994
      8 C8          2.9466   -1.3973   -0.6457 C.2       1 <0>         0.6462
      9 C9         -0.2536   -7.2081   -1.3618 C.cat     1 <0>         0.6305
     10 C10         7.0351   -1.1905   -6.4289 C.3       1 <0>        -0.0319
     11 C11         1.8611    1.7587   -2.3835 C.3       1 <0>        -0.0918
     12 C12         1.3294    1.8958    0.1130 C.3       1 <0>        -0.0841
     13 C13         1.7075    0.2690   -2.0963 C.3       1 <0>         0.0870
     14 C14         5.5668    0.2674   -5.0034 C.3       1 <0>         0.2023
     15 C15         2.4335    0.8481    0.2329 C.3       1 <0>         0.0778
     16 C16         6.6810    0.2582   -6.0555 C.3       1 <0>        -0.0746
     17 C17         1.3508    2.6418   -1.2332 C.3       1 <0>        -0.0681
     18 C18         7.9114    1.0461   -5.5915 C.3       1 <0>        -0.0944
     19 C19        -0.0342    3.2135   -1.5417 C.3       1 <0>        -0.0918
     20 C20         2.0376   -4.1819   -1.4375 C.3       1 <0>        -0.1192
     21 C21         2.4114   -3.0756   -2.4306 C.3       1 <0>        -0.0916
     22 C22         1.0502   -5.1786   -2.0318 C.3       1 <0>         0.1883
     23 C23         3.4544   -2.1251   -1.8653 C.3       1 <0>         0.1952
     24 N1          5.9268   -0.5192   -3.8388 N.pl3     1 <0>        -0.7670
     25 N2          2.3949   -0.1309   -0.8598 N.am      1 <0>        -0.4509
     26 N3         -0.5855   -8.1838   -0.4275 N.pl3     1 <0>        -0.8477
     27 N4         -0.8674   -7.2277   -2.6095 N.pl3     1 <0>        -0.8633
     28 N5          0.6828   -6.2099   -1.0722 N.pl3     1 <0>        -0.7419
     29 N6          4.6097   -2.8934   -1.3678 N.pl3     1 <0>        -0.8860
     30 O1          4.4929    1.8260   -0.6264 O.2       1 <0>        -0.5199
     31 O2          3.0377   -1.9312    0.4627 O.2       1 <0>        -0.6131
     32 O3          6.9529   -2.8526   -0.2994 O.2       1 <0>        -0.6576
     33 O4          5.9925   -0.7285   -1.2427 O.2       1 <0>        -0.6482
     34 O5          4.0536    1.8884    1.6094 O.3       1 <0>        -0.6303
     35 S1          6.1490   -2.1694   -1.2948 S.o2      1 <0>         1.5193
     36 H1          8.6128   -5.0492   -4.3233 H         1 <0>         0.1426
     37 H2          8.3370   -3.5761   -6.2882 H         1 <0>         0.1398
     38 H3          7.6373   -4.3904   -2.1321 H         1 <0>         0.1599
     39 H4          7.9496   -1.2005   -7.0344 H         1 <0>         0.0574
     40 H5          6.2282   -1.6124   -7.0418 H         1 <0>         0.0629
     41 H6          2.9275    1.9711   -2.5379 H         1 <0>         0.0614
     42 H7          1.3587    2.0144   -3.3237 H         1 <0>         0.0593
     43 H8          0.3614    1.3894    0.2306 H         1 <0>         0.0841
     44 H9          1.3961    2.6253    0.9302 H         1 <0>         0.0679
     45 H10         0.6501    0.0044   -1.9791 H         1 <0>         0.0826
     46 H11         2.0979   -0.3101   -2.9388 H         1 <0>         0.0383
     47 H12         5.3450    1.2940   -4.6914 H         1 <0>         0.0556
     48 H13         4.6461   -0.1420   -5.4370 H         1 <0>         0.0415
     49 H14         2.3194    0.3128    1.1832 H         1 <0>         0.0851
     50 H15         6.3127    0.7634   -6.9569 H         1 <0>         0.0639
     51 H16         2.0299    3.4998   -1.1486 H         1 <0>         0.0584
     52 H17         8.7766    0.3839   -5.4916 H         1 <0>         0.0401
     53 H18         8.1596    1.8310   -6.3121 H         1 <0>         0.0440
     54 H19         7.7235    1.5158   -4.6214 H         1 <0>         0.0459
     55 H20         0.0409    4.0371   -2.2580 H         1 <0>         0.0456
     56 H21        -0.6818    2.4425   -1.9698 H         1 <0>         0.0366
     57 H22        -0.5055    3.5921   -0.6298 H         1 <0>         0.0474
     58 H23         2.9446   -4.7113   -1.1217 H         1 <0>         0.0800
     59 H24         1.5893   -3.7381   -0.5411 H         1 <0>         0.0681
     60 H25         1.5058   -2.5277   -2.7226 H         1 <0>         0.0740
     61 H26         2.8104   -3.5289   -3.3468 H         1 <0>         0.0631
     62 H27         1.4667   -5.6672   -2.9184 H         1 <0>         0.0970
     63 H28         0.1320   -4.6626   -2.3297 H         1 <0>         0.0725
     64 H29         3.7902   -1.3903   -2.5956 H         1 <0>         0.0839
     65 H30         5.4649   -0.3392   -2.9558 H         1 <0>         0.4531
     66 H31        -0.1613   -8.2101    0.4959 H         1 <0>         0.4798
     67 H32        -1.2672   -8.9065   -0.6465 H         1 <0>         0.4881
     68 H33        -0.6480   -6.5297   -3.3160 H         1 <0>         0.4801
     69 H34        -1.5528   -7.9404   -2.8480 H         1 <0>         0.4806
     70 H35         1.1164   -6.2217   -0.1478 H         1 <0>         0.4689
     71 H36         4.3912   -3.6637   -0.7270 H         1 <0>         0.4505
     72 H37         4.9138    2.3532    1.6893 H         1 <0>         0.4443
@<TRIPOS>BOND
     1    1    2 ar
     2    1    3 ar
     3    2    4 ar
     4    3    6 ar
     5    4    5 ar
     6    4   10 1
     7    5    6 ar
     8    5   24 1
     9    6   35 1
    10    7   15 1
    11    7   30 2
    12    7   34 1
    13    8   23 1
    14    8   25 am
    15    8   31 2
    16    9   26 1
    17    9   27 1
    18    9   28 1
    19   10   16 1
    20   11   13 1
    21   11   17 1
    22   12   15 1
    23   12   17 1
    24   13   25 1
    25   14   16 1
    26   14   24 1
    27   15   25 1
    28   16   18 1
    29   17   19 1
    30   20   21 1
    31   20   22 1
    32   21   23 1
    33   22   28 1
    34   23   29 1
    35   29   35 1
    36   32   35 2
    37   33   35 2
    38    1   36 1
    39    2   37 1
    40    3   38 1
    41   10   39 1
    42   10   40 1
    43   11   41 1
    44   11   42 1
    45   12   43 1
    46   12   44 1
    47   13   45 1
    48   13   46 1
    49   14   47 1
    50   14   48 1
    51   15   49 1
    52   16   50 1
    53   17   51 1
    54   18   52 1
    55   18   53 1
    56   18   54 1
    57   19   55 1
    58   19   56 1
    59   19   57 1
    60   20   58 1
    61   20   59 1
    62   21   60 1
    63   21   61 1
    64   22   62 1
    65   22   63 1
    66   23   64 1
    67   24   65 1
    68   26   66 1
    69   26   67 1
    70   27   68 1
    71   27   69 1
    72   28   70 1
    73   29   71 1
    74   34   72 1
@<TRIPOS>MOLECULE
1dwc_ligand_370
   72    74     0     0     0
SMALL
USER_CHARGES

mmff94s_NoEstat = 83.81
@<TRIPOS>ATOM
      1 C1         -0.0765   -5.3560   -0.3222 C.ar      1 <0>        -0.1945
      2 C2         -0.6872   -6.5853   -0.0830 C.ar      1 <0>        -0.0294
      3 C3          0.7198   -4.7746    0.6598 C.ar      1 <0>        -0.0143
      4 C4         -0.5074   -7.2397    1.1442 C.ar      1 <0>        -0.1552
      5 C5          0.3203   -6.6715    2.1324 C.ar      1 <0>         0.3076
      6 C6          0.9136   -5.4263    1.8789 C.ar      1 <0>        -0.4908
      7 C7         -0.2549    0.4306    0.6330 C.2       1 <0>         0.5994
      8 C8          0.8654   -1.4427    3.2413 C.2       1 <0>         0.6462
      9 C9         -5.3792    0.5120    4.1450 C.cat     1 <0>         0.6305
     10 C10        -1.1708   -8.5750    1.3814 C.3       1 <0>        -0.0319
     11 C11         3.3665   -0.6443    0.6676 C.3       1 <0>        -0.0918
     12 C12         1.2181   -1.2005   -0.4907 C.3       1 <0>        -0.0841
     13 C13         2.5847   -0.2704    1.9206 C.3       1 <0>         0.0870
     14 C14         0.0654   -8.6579    3.5674 C.3       1 <0>         0.2023
     15 C15         0.4427   -0.9096    0.7969 C.3       1 <0>         0.0778
     16 C16        -1.2757   -8.9238    2.8751 C.3       1 <0>        -0.0746
     17 C17         2.5288   -0.4088   -0.5919 C.3       1 <0>        -0.0681
     18 C18        -2.4283   -8.1778    3.5569 C.3       1 <0>        -0.0944
     19 C19         3.3078   -0.8065   -1.8442 C.3       1 <0>        -0.0918
     20 C20        -2.1115   -1.2711    3.3990 C.3       1 <0>        -0.1192
     21 C21        -1.3133   -2.4479    3.9716 C.3       1 <0>        -0.0916
     22 C22        -3.3821   -0.9970    4.1941 C.3       1 <0>         0.1883
     23 C23        -0.0078   -2.6730    3.2260 C.3       1 <0>         0.1952
     24 N1          0.5108   -7.2929    3.3602 N.pl3     1 <0>        -0.7670
     25 N2          1.2915   -0.9578    1.9994 N.am      1 <0>        -0.4509
     26 N3         -6.0873    1.5705    3.5854 N.pl3     1 <0>        -0.8477
     27 N4         -5.9120   -0.1549    5.2429 N.pl3     1 <0>        -0.8633
     28 N5         -4.1449    0.1056    3.6268 N.pl3     1 <0>        -0.7419
     29 N6          0.7961   -3.6905    3.9267 N.pl3     1 <0>        -0.8860
     30 O1          0.1931    1.5051    1.0045 O.2       1 <0>        -0.5199
     31 O2          1.1650   -0.9321    4.3240 O.2       1 <0>        -0.6131
     32 O3          2.4834   -5.6363    3.9445 O.2       1 <0>        -0.6576
     33 O4          2.8151   -3.7334    2.3342 O.2       1 <0>        -0.6482
     34 O5         -1.4521    0.2749    0.0168 O.3       1 <0>        -0.6303
     35 S1          1.9328   -4.6215    3.0666 S.o2      1 <0>         1.5193
     36 H1         -0.2244   -4.8505   -1.2727 H         1 <0>         0.1426
     37 H2         -1.3101   -7.0308   -0.8550 H         1 <0>         0.1398
     38 H3          1.1958   -3.8144    0.4870 H         1 <0>         0.1599
     39 H4         -2.1707   -8.5868    0.9307 H         1 <0>         0.0574
     40 H5         -0.5703   -9.3406    0.8737 H         1 <0>         0.0629
     41 H6          4.2893   -0.0541    0.6219 H         1 <0>         0.0614
     42 H7          3.6617   -1.6999    0.7239 H         1 <0>         0.0593
     43 H8          1.4535   -2.2733   -0.5175 H         1 <0>         0.0841
     44 H9          0.5944   -0.9953   -1.3701 H         1 <0>         0.0679
     45 H10         3.1909   -0.4908    2.8053 H         1 <0>         0.0826
     46 H11         2.3782    0.8066    1.9340 H         1 <0>         0.0383
     47 H12        -0.0150   -8.8524    4.6427 H         1 <0>         0.0556
     48 H13         0.8264   -9.3429    3.1736 H         1 <0>         0.0415
     49 H14        -0.3616   -1.6465    0.8882 H         1 <0>         0.0851
     50 H15        -1.5059   -9.9929    2.9612 H         1 <0>         0.0639
     51 H16         2.2982    0.6607   -0.6719 H         1 <0>         0.0584
     52 H17        -2.8671   -7.4430    2.8753 H         1 <0>         0.0401
     53 H18        -3.2127   -8.8774    3.8608 H         1 <0>         0.0440
     54 H19        -2.0720   -7.6515    4.4475 H         1 <0>         0.0459
     55 H20         2.6382   -1.2449   -2.5902 H         1 <0>         0.0456
     56 H21         3.7937    0.0674   -2.2885 H         1 <0>         0.0366
     57 H22         4.0794   -1.5424   -1.5992 H         1 <0>         0.0474
     58 H23        -1.4838   -0.3719    3.3933 H         1 <0>         0.0800
     59 H24        -2.3885   -1.4831    2.3599 H         1 <0>         0.0681
     60 H25        -1.9335   -3.3536    3.9489 H         1 <0>         0.0740
     61 H26        -1.0849   -2.2531    5.0271 H         1 <0>         0.0631
     62 H27        -3.1519   -0.7547    5.2365 H         1 <0>         0.0970
     63 H28        -4.0259   -1.8823    4.1866 H         1 <0>         0.0725
     64 H29        -0.1638   -2.9774    2.1921 H         1 <0>         0.0839
     65 H30         1.1733   -6.8832    4.0073 H         1 <0>         0.4531
     66 H31        -5.7362    2.0880    2.7841 H         1 <0>         0.4798
     67 H32        -6.9840    1.8599    3.9689 H         1 <0>         0.4881
     68 H33        -5.4209   -0.9328    5.6766 H         1 <0>         0.4801
     69 H34        -6.8078    0.1174    5.6406 H         1 <0>         0.4806
     70 H35        -3.7797    0.6144    2.8203 H         1 <0>         0.4689
     71 H36         0.9382   -3.5340    4.9302 H         1 <0>         0.4505
     72 H37        -1.9197    1.1298   -0.0968 H         1 <0>         0.4443
@<TRIPOS>BOND
     1    1    2 ar
     2    1    3 ar
     3    2    4 ar
     4    3    6 ar
     5    4    5 ar
     6    4   10 1
     7    5    6 ar
     8    5   24 1
     9    6   35 1
    10    7   15 1
    11    7   30 2
    12    7   34 1
    13    8   23 1
    14    8   25 am
    15    8   31 2
    16    9   26 1
    17    9   27 1
    18    9   28 1
    19   10   16 1
    20   11   13 1
    21   11   17 1
    22   12   15 1
    23   12   17 1
    24   13   25 1
    25   14   16 1
    26   14   24 1
    27   15   25 1
    28   16   18 1
    29   17   19 1
    30   20   21 1
    31   20   22 1
    32   21   23 1
    33   22   28 1
    34   23   29 1
    35   29   35 1
    36   32   35 2
    37   33   35 2
    38    1   36 1
    39    2   37 1
    40    3   38 1
    41   10   39 1
    42   10   40 1
    43   11   41 1
    44   11   42 1
    45   12   43 1
    46   12   44 1
    47   13   45 1
    48   13   46 1
    49   14   47 1
    50   14   48 1
    51   15   49 1
    52   16   50 1
    53   17   51 1
    54   18   52 1
    55   18   53 1
    56   18   54 1
    57   19   55 1
    58   19   56 1
    59   19   57 1
    60   20   58 1
    61   20   59 1
    62   21   60 1
    63   21   61 1
    64   22   62 1
    65   22   63 1
    66   23   64 1
    67   24   65 1
    68   26   66 1
    69   26   67 1
    70   27   68 1
    71   27   69 1
    72   28   70 1
    73   29   71 1
    74   34   72 1
@<TRIPOS>MOLECULE
1dwc_ligand_371
   72    74     0     0     0
SMALL
USER_CHARGES

mmff94s_NoEstat = 83.82
@<TRIPOS>ATOM
      1 C1         -0.5687   -1.8484    7.8285 C.ar      1 <0>        -0.1945
      2 C2         -0.3952   -0.4679    7.9011 C.ar      1 <0>        -0.0294
      3 C3         -1.2191   -2.4094    6.7334 C.ar      1 <0>        -0.0143
      4 C4         -0.8690    0.3609    6.8741 C.ar      1 <0>        -0.1552
      5 C5         -1.5541   -0.1965    5.7761 C.ar      1 <0>         0.3076
      6 C6         -1.7052   -1.5894    5.7138 C.ar      1 <0>        -0.4908
      7 C7          2.9525   -3.7210    4.6633 C.2       1 <0>         0.5994
      8 C8          0.8654   -1.4427    3.2413 C.2       1 <0>         0.6462
      9 C9         -0.8941   -7.9715   -0.0876 C.cat     1 <0>         0.6305
     10 C10        -0.6787    1.8556    6.9729 C.3       1 <0>        -0.0319
     11 C11         3.8997   -0.0663    4.7953 C.3       1 <0>        -0.0918
     12 C12         3.0155   -1.8674    6.2922 C.3       1 <0>        -0.0841
     13 C13         3.1900   -0.7124    3.6122 C.3       1 <0>         0.0870
     14 C14        -2.0484    2.0439    4.8813 C.3       1 <0>         0.2023
     15 C15         2.2314   -2.4635    5.1202 C.3       1 <0>         0.0778
     16 C16        -0.7810    2.5267    5.5942 C.3       1 <0>        -0.0746
     17 C17         4.2756   -1.1130    5.8473 C.3       1 <0>        -0.0681
     18 C18        -0.7731    4.0470    5.7280 C.3       1 <0>        -0.0944
     19 C19         4.9663   -0.4582    7.0420 C.3       1 <0>        -0.0918
     20 C20        -0.5404   -4.8511    2.0458 C.3       1 <0>        -0.1192
     21 C21         0.3004   -3.5693    2.0376 C.3       1 <0>        -0.0916
     22 C22        -0.1768   -5.7847    0.8978 C.3       1 <0>         0.1883
     23 C23        -0.0078   -2.6730    3.2260 C.3       1 <0>         0.1952
     24 N1         -2.0339    0.5998    4.7435 N.pl3     1 <0>        -0.7670
     25 N2          2.0252   -1.5038    4.0223 N.am      1 <0>        -0.4509
     26 N3         -1.6898   -9.1122   -0.0609 N.pl3     1 <0>        -0.8477
     27 N4          0.0239   -7.8094   -1.1196 N.pl3     1 <0>        -0.8633
     28 N5         -0.9984   -6.9865    0.9003 N.pl3     1 <0>        -0.7419
     29 N6         -1.3760   -2.1385    3.1042 N.pl3     1 <0>        -0.8860
     30 O1          3.6755   -4.4103    5.3671 O.2       1 <0>        -0.5199
     31 O2          0.5240   -0.4555    2.5844 O.2       1 <0>        -0.6131
     32 O3         -2.5906   -3.7967    4.6561 O.2       1 <0>        -0.6576
     33 O4         -3.7019   -1.6181    4.0705 O.2       1 <0>        -0.6482
     34 O5          2.6872   -3.9778    3.3591 O.3       1 <0>        -0.6303
     35 S1         -2.5018   -2.3799    4.3583 S.o2      1 <0>         1.5193
     36 H1         -0.1935   -2.4863    8.6241 H         1 <0>         0.1426
     37 H2          0.1168   -0.0386    8.7590 H         1 <0>         0.1398
     38 H3         -1.3546   -3.4839    6.6632 H         1 <0>         0.1599
     39 H4         -1.4443    2.2564    7.6493 H         1 <0>         0.0574
     40 H5          0.3029    2.0794    7.4083 H         1 <0>         0.0629
     41 H6          4.7987    0.4538    4.4437 H         1 <0>         0.0614
     42 H7          3.2442    0.6909    5.2441 H         1 <0>         0.0593
     43 H8          2.3586   -1.1679    6.8273 H         1 <0>         0.0841
     44 H9          3.2888   -2.6509    7.0104 H         1 <0>         0.0679
     45 H10         2.8945    0.0639    2.8988 H         1 <0>         0.0826
     46 H11         3.8704   -1.3909    3.0835 H         1 <0>         0.0383
     47 H12        -2.9433    2.3470    5.4389 H         1 <0>         0.0556
     48 H13        -2.1184    2.4959    3.8856 H         1 <0>         0.0415
     49 H14         1.2607   -2.8048    5.4936 H         1 <0>         0.0851
     50 H15         0.0923    2.2358    4.9947 H         1 <0>         0.0639
     51 H16         4.9839   -1.8245    5.4052 H         1 <0>         0.0584
     52 H17        -0.6000    4.5176    4.7555 H         1 <0>         0.0401
     53 H18        -1.7312    4.4037    6.1178 H         1 <0>         0.0440
     54 H19         0.0183    4.3685    6.4117 H         1 <0>         0.0459
     55 H20         4.4464   -0.7091    7.9715 H         1 <0>         0.0456
     56 H21         6.0020   -0.8015    7.1231 H         1 <0>         0.0366
     57 H22         4.9717    0.6305    6.9335 H         1 <0>         0.0474
     58 H23        -0.4002   -5.3741    2.9994 H         1 <0>         0.0800
     59 H24        -1.6035   -4.5964    1.9658 H         1 <0>         0.0681
     60 H25         0.1357   -3.0322    1.0943 H         1 <0>         0.0740
     61 H26         1.3654   -3.8328    2.0643 H         1 <0>         0.0631
     62 H27         0.8739   -6.0869    0.9513 H         1 <0>         0.0970
     63 H28        -0.3350   -5.2785   -0.0598 H         1 <0>         0.0725
     64 H29         0.1003   -3.1895    4.1787 H         1 <0>         0.0839
     65 H30        -2.5847    0.1629    4.0147 H         1 <0>         0.4531
     66 H31        -2.3726   -9.2741    0.6745 H         1 <0>         0.4798
     67 H32        -1.6070   -9.8240   -0.7830 H         1 <0>         0.4881
     68 H33         0.6213   -6.9877   -1.1696 H         1 <0>         0.4801
     69 H34         0.1212   -8.5082   -1.8524 H         1 <0>         0.4806
     70 H35        -1.6814   -7.1337    1.6450 H         1 <0>         0.4689
     71 H36        -1.4850   -1.3266    2.4871 H         1 <0>         0.4505
     72 H37         3.1457   -4.7859    3.0442 H         1 <0>         0.4443
@<TRIPOS>BOND
     1    1    2 ar
     2    1    3 ar
     3    2    4 ar
     4    3    6 ar
     5    4    5 ar
     6    4   10 1
     7    5    6 ar
     8    5   24 1
     9    6   35 1
    10    7   15 1
    11    7   30 2
    12    7   34 1
    13    8   23 1
    14    8   25 am
    15    8   31 2
    16    9   26 1
    17    9   27 1
    18    9   28 1
    19   10   16 1
    20   11   13 1
    21   11   17 1
    22   12   15 1
    23   12   17 1
    24   13   25 1
    25   14   16 1
    26   14   24 1
    27   15   25 1
    28   16   18 1
    29   17   19 1
    30   20   21 1
    31   20   22 1
    32   21   23 1
    33   22   28 1
    34   23   29 1
    35   29   35 1
    36   32   35 2
    37   33   35 2
    38    1   36 1
    39    2   37 1
    40    3   38 1
    41   10   39 1
    42   10   40 1
    43   11   41 1
    44   11   42 1
    45   12   43 1
    46   12   44 1
    47   13   45 1
    48   13   46 1
    49   14   47 1
    50   14   48 1
    51   15   49 1
    52   16   50 1
    53   17   51 1
    54   18   52 1
    55   18   53 1
    56   18   54 1
    57   19   55 1
    58   19   56 1
    59   19   57 1
    60   20   58 1
    61   20   59 1
    62   21   60 1
    63   21   61 1
    64   22   62 1
    65   22   63 1
    66   23   64 1
    67   24   65 1
    68   26   66 1
    69   26   67 1
    70   27   68 1
    71   27   69 1
    72   28   70 1
    73   29   71 1
    74   34   72 1
@<TRIPOS>MOLECULE
1dwc_ligand_372
   72    74     0     0     0
SMALL
USER_CHARGES

mmff94s_NoEstat = 83.86
@<TRIPOS>ATOM
      1 C1         -2.2959   -2.3538    7.8119 C.ar      1 <0>        -0.1945
      2 C2         -2.6720   -1.0237    7.9869 C.ar      1 <0>        -0.0294
      3 C3         -2.3070   -2.9163    6.5390 C.ar      1 <0>        -0.0143
      4 C4         -3.0584   -0.2458    6.8861 C.ar      1 <0>        -0.1552
      5 C5         -3.1002   -0.8160    5.5982 C.ar      1 <0>         0.3076
      6 C6         -2.7033   -2.1518    5.4404 C.ar      1 <0>        -0.4908
      7 C7          1.8094   -2.2220    6.4146 C.2       1 <0>         0.5994
      8 C8          0.8654   -1.4427    3.2413 C.2       1 <0>         0.6462
      9 C9          4.1374   -5.9784    4.2279 C.cat     1 <0>         0.6305
     10 C10        -3.4700    1.1919    7.0953 C.3       1 <0>        -0.0319
     11 C11         1.3547    1.4153    5.5015 C.3       1 <0>        -0.0918
     12 C12         0.1935   -0.3932    6.7850 C.3       1 <0>        -0.0841
     13 C13         1.9116    0.3681    4.5455 C.3       1 <0>         0.0870
     14 C14        -4.0628    1.2474    4.6598 C.3       1 <0>         0.2023
     15 C15         0.6811   -1.4322    5.7719 C.3       1 <0>         0.0778
     16 C16        -3.3611    2.0019    5.7939 C.3       1 <0>        -0.0746
     17 C17         1.1262    0.8207    6.8935 C.3       1 <0>        -0.0681
     18 C18        -3.9527    3.3976    5.9715 C.3       1 <0>        -0.0944
     19 C19         0.5462    1.8676    7.8426 C.3       1 <0>        -0.0918
     20 C20         1.7689   -4.0083    2.0091 C.3       1 <0>        -0.1192
     21 C21         0.3004   -3.5693    2.0376 C.3       1 <0>        -0.0916
     22 C22         2.1396   -4.8550    3.2204 C.3       1 <0>         0.1883
     23 C23        -0.0078   -2.6730    3.2260 C.3       1 <0>         0.1952
     24 N1         -3.4782   -0.0694    4.4890 N.pl3     1 <0>        -0.7670
     25 N2          1.0754   -0.8353    4.4846 N.am      1 <0>        -0.4509
     26 N3          5.4796   -6.3403    4.1791 N.pl3     1 <0>        -0.8477
     27 N4          3.3733   -6.3549    5.3272 N.pl3     1 <0>        -0.8633
     28 N5          3.5421   -5.2449    3.1960 N.pl3     1 <0>        -0.7419
     29 N6         -1.3760   -2.1385    3.1042 N.pl3     1 <0>        -0.8860
     30 O1          2.9993   -1.9718    6.2928 O.2       1 <0>        -0.5199
     31 O2          1.3411   -1.0305    2.1799 O.2       1 <0>        -0.6131
     32 O3         -2.3304   -4.3295    4.0644 O.2       1 <0>        -0.6576
     33 O4         -3.9087   -2.5768    3.1921 O.2       1 <0>        -0.6482
     34 O5          1.3170   -3.2520    7.1454 O.3       1 <0>        -0.6303
     35 S1         -2.6746   -2.9347    3.8647 S.o2      1 <0>         1.5193
     36 H1         -1.9909   -2.9498    8.6676 H         1 <0>         0.1426
     37 H2         -2.6574   -0.5917    8.9847 H         1 <0>         0.1398
     38 H3         -2.0103   -3.9495    6.3897 H         1 <0>         0.1599
     39 H4         -4.5027    1.2042    7.4664 H         1 <0>         0.0574
     40 H5         -2.8343    1.6552    7.8598 H         1 <0>         0.0629
     41 H6          2.0492    2.2615    5.5629 H         1 <0>         0.0614
     42 H7          0.4079    1.8038    5.1048 H         1 <0>         0.0593
     43 H8         -0.8003   -0.0449    6.4717 H         1 <0>         0.0841
     44 H9          0.0668   -0.8506    7.7745 H         1 <0>         0.0679
     45 H10         2.0225    0.8091    3.5494 H         1 <0>         0.0826
     46 H11         2.9105    0.0502    4.8680 H         1 <0>         0.0383
     47 H12        -5.1346    1.1449    4.8705 H         1 <0>         0.0556
     48 H13        -3.9688    1.8032    3.7203 H         1 <0>         0.0415
     49 H14        -0.1232   -2.1562    5.6073 H         1 <0>         0.0851
     50 H15        -2.2992    2.1152    5.5368 H         1 <0>         0.0639
     51 H16         2.0901    0.4983    7.3061 H         1 <0>         0.0584
     52 H17        -3.6607    4.0473    5.1410 H         1 <0>         0.0401
     53 H18        -5.0453    3.3508    6.0047 H         1 <0>         0.0440
     54 H19        -3.5987    3.8493    6.9030 H         1 <0>         0.0459
     55 H20        -0.3870    1.5087    8.2868 H         1 <0>         0.0456
     56 H21         1.2507    2.0862    8.6507 H         1 <0>         0.0366
     57 H22         0.3370    2.7982    7.3067 H         1 <0>         0.0474
     58 H23         1.9621   -4.5788    1.0926 H         1 <0>         0.0800
     59 H24         2.4183   -3.1256    1.9878 H         1 <0>         0.0681
     60 H25        -0.3448   -4.4577    2.0448 H         1 <0>         0.0740
     61 H26         0.0666   -3.0218    1.1158 H         1 <0>         0.0631
     62 H27         1.5314   -5.7638    3.2690 H         1 <0>         0.0970
     63 H28         1.9712   -4.2856    4.1400 H         1 <0>         0.0725
     64 H29         0.1003   -3.1895    4.1787 H         1 <0>         0.0839
     65 H30        -3.5654   -0.5418    3.5977 H         1 <0>         0.4531
     66 H31         6.0759   -6.0890    3.3951 H         1 <0>         0.4798
     67 H32         5.9045   -6.8743    4.9336 H         1 <0>         0.4881
     68 H33         2.3892   -6.1071    5.3950 H         1 <0>         0.4801
     69 H34         3.7791   -6.8874    6.0930 H         1 <0>         0.4806
     70 H35         4.1286   -4.9831    2.4022 H         1 <0>         0.4689
     71 H36        -1.4476   -1.1318    2.9219 H         1 <0>         0.4505
     72 H37         2.0308   -3.7759    7.5675 H         1 <0>         0.4443
@<TRIPOS>BOND
     1    1    2 ar
     2    1    3 ar
     3    2    4 ar
     4    3    6 ar
     5    4    5 ar
     6    4   10 1
     7    5    6 ar
     8    5   24 1
     9    6   35 1
    10    7   15 1
    11    7   30 2
    12    7   34 1
    13    8   23 1
    14    8   25 am
    15    8   31 2
    16    9   26 1
    17    9   27 1
    18    9   28 1
    19   10   16 1
    20   11   13 1
    21   11   17 1
    22   12   15 1
    23   12   17 1
    24   13   25 1
    25   14   16 1
    26   14   24 1
    27   15   25 1
    28   16   18 1
    29   17   19 1
    30   20   21 1
    31   20   22 1
    32   21   23 1
    33   22   28 1
    34   23   29 1
    35   29   35 1
    36   32   35 2
    37   33   35 2
    38    1   36 1
    39    2   37 1
    40    3   38 1
    41   10   39 1
    42   10   40 1
    43   11   41 1
    44   11   42 1
    45   12   43 1
    46   12   44 1
    47   13   45 1
    48   13   46 1
    49   14   47 1
    50   14   48 1
    51   15   49 1
    52   16   50 1
    53   17   51 1
    54   18   52 1
    55   18   53 1
    56   18   54 1
    57   19   55 1
    58   19   56 1
    59   19   57 1
    60   20   58 1
    61   20   59 1
    62   21   60 1
    63   21   61 1
    64   22   62 1
    65   22   63 1
    66   23   64 1
    67   24   65 1
    68   26   66 1
    69   26   67 1
    70   27   68 1
    71   27   69 1
    72   28   70 1
    73   29   71 1
    74   34   72 1
@<TRIPOS>MOLECULE
1dwc_ligand_373
   72    74     0     0     0
SMALL
USER_CHARGES

mmff94s_NoEstat = 83.90
@<TRIPOS>ATOM
      1 C1          0.6009   -5.4402   -0.5450 C.ar      1 <0>        -0.1945
      2 C2          1.9177   -5.1745   -0.9146 C.ar      1 <0>        -0.0294
      3 C3          0.2538   -5.4826    0.8019 C.ar      1 <0>        -0.0143
      4 C4          2.8980   -4.9531    0.0635 C.ar      1 <0>        -0.1552
      5 C5          2.5489   -4.9659    1.4281 C.ar      1 <0>         0.3076
      6 C6          1.2217   -5.2505    1.7807 C.ar      1 <0>        -0.4908
      7 C7          0.0474   -1.6003   -0.0563 C.2       1 <0>         0.5994
      8 C8          0.8654   -1.4427    3.2413 C.2       1 <0>         0.6462
      9 C9         -4.0845   -0.2977    6.4931 C.cat     1 <0>         0.6305
     10 C10         4.3179   -4.6587   -0.3572 C.3       1 <0>        -0.0319
     11 C11         2.7802    0.7752    1.0208 C.3       1 <0>        -0.0918
     12 C12         2.5085   -1.4277   -0.1368 C.3       1 <0>        -0.0841
     13 C13         1.5404    0.4804    1.8554 C.3       1 <0>         0.0870
     14 C14         4.8245   -4.2772    2.0742 C.3       1 <0>         0.2023
     15 C15         1.3165   -1.7600    0.7646 C.3       1 <0>         0.0778
     16 C16         5.3306   -4.9077    0.7723 C.3       1 <0>        -0.0746
     17 C17         2.7020    0.0809   -0.3413 C.3       1 <0>        -0.0681
     18 C18         5.6414   -6.3991    0.9431 C.3       1 <0>        -0.0944
     19 C19         3.9570    0.3602   -1.1659 C.3       1 <0>        -0.0918
     20 C20        -2.1115   -1.2711    3.3990 C.3       1 <0>        -0.1192
     21 C21        -1.3133   -2.4479    3.9716 C.3       1 <0>        -0.0916
     22 C22        -3.3821   -0.9970    4.1941 C.3       1 <0>         0.1883
     23 C23        -0.0078   -2.6730    3.2260 C.3       1 <0>         0.1952
     24 N1          3.4999   -4.7575    2.4193 N.pl3     1 <0>        -0.7670
     25 N2          1.2915   -0.9578    1.9994 N.am      1 <0>        -0.4509
     26 N3         -3.7764    0.0291    7.8096 N.pl3     1 <0>        -0.8477
     27 N4         -5.4128   -0.2742    6.0819 N.pl3     1 <0>        -0.8633
     28 N5         -3.0875   -0.6486    5.5765 N.pl3     1 <0>        -0.7419
     29 N6          0.7961   -3.6905    3.9267 N.pl3     1 <0>        -0.8860
     30 O1         -0.0198   -1.7048   -1.2720 O.2       1 <0>        -0.5199
     31 O2          1.1650   -0.9321    4.3240 O.2       1 <0>        -0.6131
     32 O3         -0.6876   -5.7475    3.4786 O.2       1 <0>        -0.6576
     33 O4          1.7036   -6.0834    4.1813 O.2       1 <0>        -0.6482
     34 O5         -1.0094   -1.3214    0.7454 O.3       1 <0>        -0.6303
     35 S1          0.6998   -5.3249    3.4597 S.o2      1 <0>         1.5193
     36 H1         -0.1532   -5.6173   -1.3071 H         1 <0>         0.1426
     37 H2          2.1805   -5.1462   -1.9695 H         1 <0>         0.1398
     38 H3         -0.7676   -5.6946    1.1020 H         1 <0>         0.1599
     39 H4          4.5872   -5.2635   -1.2316 H         1 <0>         0.0574
     40 H5          4.3648   -3.6041   -0.6574 H         1 <0>         0.0629
     41 H6          2.8818    1.8586    0.8858 H         1 <0>         0.0614
     42 H7          3.6725    0.4327    1.5603 H         1 <0>         0.0593
     43 H8          3.4165   -1.8382    0.3259 H         1 <0>         0.0841
     44 H9          2.4035   -1.9216   -1.1111 H         1 <0>         0.0679
     45 H10         1.6443    0.9520    2.8381 H         1 <0>         0.0826
     46 H11         0.6509    0.9155    1.3839 H         1 <0>         0.0383
     47 H12         5.5138   -4.4958    2.8973 H         1 <0>         0.0556
     48 H13         4.7892   -3.1861    1.9666 H         1 <0>         0.0415
     49 H14         1.3647   -2.8230    1.0210 H         1 <0>         0.0851
     50 H15         6.2762   -4.4249    0.4964 H         1 <0>         0.0639
     51 H16         1.8454    0.4816   -0.8972 H         1 <0>         0.0584
     52 H17         4.9808   -7.0038    0.3146 H         1 <0>         0.0401
     53 H18         6.6765   -6.6112    0.6589 H         1 <0>         0.0440
     54 H19         5.5005   -6.7043    1.9843 H         1 <0>         0.0459
     55 H20         4.2296   -0.5171   -1.7602 H         1 <0>         0.0456
     56 H21         3.7904    1.1997   -1.8474 H         1 <0>         0.0366
     57 H22         4.7987    0.6086   -0.5125 H         1 <0>         0.0474
     58 H23        -1.4838   -0.3719    3.3933 H         1 <0>         0.0800
     59 H24        -2.3885   -1.4831    2.3599 H         1 <0>         0.0681
     60 H25        -1.9335   -3.3536    3.9489 H         1 <0>         0.0740
     61 H26        -1.0849   -2.2531    5.0271 H         1 <0>         0.0631
     62 H27        -4.0449   -1.8681    4.1933 H         1 <0>         0.0970
     63 H28        -3.9265   -0.1572    3.7507 H         1 <0>         0.0725
     64 H29        -0.1638   -2.9774    2.1921 H         1 <0>         0.0839
     65 H30         3.1862   -4.7016    3.3805 H         1 <0>         0.4531
     66 H31        -2.8204    0.0236    8.1552 H         1 <0>         0.4798
     67 H32        -4.5077    0.2825    8.4699 H         1 <0>         0.4881
     68 H33        -5.6732   -0.5076    5.1268 H         1 <0>         0.4801
     69 H34        -6.1589   -0.0219    6.7256 H         1 <0>         0.4806
     70 H35        -2.1217   -0.6567    5.9080 H         1 <0>         0.4689
     71 H36         1.6533   -3.3509    4.3757 H         1 <0>         0.4505
     72 H37        -1.8390   -1.2127    0.2333 H         1 <0>         0.4443
@<TRIPOS>BOND
     1    1    2 ar
     2    1    3 ar
     3    2    4 ar
     4    3    6 ar
     5    4    5 ar
     6    4   10 1
     7    5    6 ar
     8    5   24 1
     9    6   35 1
    10    7   15 1
    11    7   30 2
    12    7   34 1
    13    8   23 1
    14    8   25 am
    15    8   31 2
    16    9   26 1
    17    9   27 1
    18    9   28 1
    19   10   16 1
    20   11   13 1
    21   11   17 1
    22   12   15 1
    23   12   17 1
    24   13   25 1
    25   14   16 1
    26   14   24 1
    27   15   25 1
    28   16   18 1
    29   17   19 1
    30   20   21 1
    31   20   22 1
    32   21   23 1
    33   22   28 1
    34   23   29 1
    35   29   35 1
    36   32   35 2
    37   33   35 2
    38    1   36 1
    39    2   37 1
    40    3   38 1
    41   10   39 1
    42   10   40 1
    43   11   41 1
    44   11   42 1
    45   12   43 1
    46   12   44 1
    47   13   45 1
    48   13   46 1
    49   14   47 1
    50   14   48 1
    51   15   49 1
    52   16   50 1
    53   17   51 1
    54   18   52 1
    55   18   53 1
    56   18   54 1
    57   19   55 1
    58   19   56 1
    59   19   57 1
    60   20   58 1
    61   20   59 1
    62   21   60 1
    63   21   61 1
    64   22   62 1
    65   22   63 1
    66   23   64 1
    67   24   65 1
    68   26   66 1
    69   26   67 1
    70   27   68 1
    71   27   69 1
    72   28   70 1
    73   29   71 1
    74   34   72 1
@<TRIPOS>MOLECULE
1dwc_ligand_374
   72    74     0     0     0
SMALL
USER_CHARGES

mmff94s_NoEstat = 83.90
@<TRIPOS>ATOM
      1 C1         -2.2959   -2.3538    7.8119 C.ar      1 <0>        -0.1945
      2 C2         -2.6720   -1.0237    7.9869 C.ar      1 <0>        -0.0294
      3 C3         -2.3070   -2.9163    6.5390 C.ar      1 <0>        -0.0143
      4 C4         -3.0584   -0.2458    6.8861 C.ar      1 <0>        -0.1552
      5 C5         -3.1002   -0.8160    5.5982 C.ar      1 <0>         0.3076
      6 C6         -2.7033   -2.1518    5.4404 C.ar      1 <0>        -0.4908
      7 C7          1.8094   -2.2220    6.4146 C.2       1 <0>         0.5994
      8 C8          0.8654   -1.4427    3.2413 C.2       1 <0>         0.6462
      9 C9          2.1577   -4.6267   -1.7165 C.cat     1 <0>         0.6305
     10 C10        -3.4700    1.1919    7.0953 C.3       1 <0>        -0.0319
     11 C11         1.3547    1.4153    5.5015 C.3       1 <0>        -0.0918
     12 C12         0.1935   -0.3932    6.7850 C.3       1 <0>        -0.0841
     13 C13         1.9116    0.3681    4.5455 C.3       1 <0>         0.0870
     14 C14        -4.0628    1.2474    4.6598 C.3       1 <0>         0.2023
     15 C15         0.6811   -1.4322    5.7719 C.3       1 <0>         0.0778
     16 C16        -3.3611    2.0019    5.7939 C.3       1 <0>        -0.0746
     17 C17         1.1262    0.8207    6.8935 C.3       1 <0>        -0.0681
     18 C18        -3.9527    3.3976    5.9715 C.3       1 <0>        -0.0944
     19 C19         0.5462    1.8676    7.8426 C.3       1 <0>        -0.0918
     20 C20         1.7689   -4.0083    2.0091 C.3       1 <0>        -0.1192
     21 C21         0.3004   -3.5693    2.0376 C.3       1 <0>        -0.0916
     22 C22         2.0958   -4.8429    0.7769 C.3       1 <0>         0.1883
     23 C23        -0.0078   -2.6730    3.2260 C.3       1 <0>         0.1952
     24 N1         -3.4782   -0.0694    4.4890 N.pl3     1 <0>        -0.7670
     25 N2          1.0754   -0.8353    4.4846 N.am      1 <0>        -0.4509
     26 N3          1.9356   -3.8927   -2.8771 N.pl3     1 <0>        -0.8477
     27 N4          2.6719   -5.9149   -1.8171 N.pl3     1 <0>        -0.8633
     28 N5          1.8751   -4.0962   -0.4532 N.pl3     1 <0>        -0.7419
     29 N6         -1.3760   -2.1385    3.1042 N.pl3     1 <0>        -0.8860
     30 O1          2.9993   -1.9718    6.2928 O.2       1 <0>        -0.5199
     31 O2          1.3411   -1.0305    2.1799 O.2       1 <0>        -0.6131
     32 O3         -2.3304   -4.3295    4.0644 O.2       1 <0>        -0.6576
     33 O4         -3.9087   -2.5768    3.1921 O.2       1 <0>        -0.6482
     34 O5          1.3170   -3.2520    7.1454 O.3       1 <0>        -0.6303
     35 S1         -2.6746   -2.9347    3.8647 S.o2      1 <0>         1.5193
     36 H1         -1.9909   -2.9498    8.6676 H         1 <0>         0.1426
     37 H2         -2.6574   -0.5917    8.9847 H         1 <0>         0.1398
     38 H3         -2.0103   -3.9495    6.3897 H         1 <0>         0.1599
     39 H4         -4.5027    1.2042    7.4664 H         1 <0>         0.0574
     40 H5         -2.8343    1.6552    7.8598 H         1 <0>         0.0629
     41 H6          2.0492    2.2615    5.5629 H         1 <0>         0.0614
     42 H7          0.4079    1.8038    5.1048 H         1 <0>         0.0593
     43 H8         -0.8003   -0.0449    6.4717 H         1 <0>         0.0841
     44 H9          0.0668   -0.8506    7.7745 H         1 <0>         0.0679
     45 H10         2.0225    0.8091    3.5494 H         1 <0>         0.0826
     46 H11         2.9105    0.0502    4.8680 H         1 <0>         0.0383
     47 H12        -5.1346    1.1449    4.8705 H         1 <0>         0.0556
     48 H13        -3.9688    1.8032    3.7203 H         1 <0>         0.0415
     49 H14        -0.1232   -2.1562    5.6073 H         1 <0>         0.0851
     50 H15        -2.2992    2.1152    5.5368 H         1 <0>         0.0639
     51 H16         2.0901    0.4983    7.3061 H         1 <0>         0.0584
     52 H17        -3.6607    4.0473    5.1410 H         1 <0>         0.0401
     53 H18        -5.0453    3.3508    6.0047 H         1 <0>         0.0440
     54 H19        -3.5987    3.8493    6.9030 H         1 <0>         0.0459
     55 H20        -0.3870    1.5087    8.2868 H         1 <0>         0.0456
     56 H21         1.2507    2.0862    8.6507 H         1 <0>         0.0366
     57 H22         0.3370    2.7982    7.3067 H         1 <0>         0.0474
     58 H23         2.4156   -3.1229    2.0318 H         1 <0>         0.0800
     59 H24         1.9949   -4.6013    2.9028 H         1 <0>         0.0681
     60 H25        -0.3448   -4.4577    2.0448 H         1 <0>         0.0740
     61 H26         0.0666   -3.0218    1.1158 H         1 <0>         0.0631
     62 H27         1.4860   -5.7513    0.7413 H         1 <0>         0.0970
     63 H28         3.1484   -5.1425    0.7970 H         1 <0>         0.0725
     64 H29         0.1003   -3.1895    4.1787 H         1 <0>         0.0839
     65 H30        -3.5654   -0.5418    3.5977 H         1 <0>         0.4531
     66 H31         1.5595   -2.9487   -2.8523 H         1 <0>         0.4798
     67 H32         2.1433   -4.2863   -3.7920 H         1 <0>         0.4881
     68 H33         2.8463   -6.4791   -0.9889 H         1 <0>         0.4801
     69 H34         2.8881   -6.3264   -2.7218 H         1 <0>         0.4806
     70 H35         1.4985   -3.1480   -0.4116 H         1 <0>         0.4689
     71 H36        -1.4476   -1.1318    2.9219 H         1 <0>         0.4505
     72 H37         2.0308   -3.7759    7.5675 H         1 <0>         0.4443
@<TRIPOS>BOND
     1    1    2 ar
     2    1    3 ar
     3    2    4 ar
     4    3    6 ar
     5    4    5 ar
     6    4   10 1
     7    5    6 ar
     8    5   24 1
     9    6   35 1
    10    7   15 1
    11    7   30 2
    12    7   34 1
    13    8   23 1
    14    8   25 am
    15    8   31 2
    16    9   26 1
    17    9   27 1
    18    9   28 1
    19   10   16 1
    20   11   13 1
    21   11   17 1
    22   12   15 1
    23   12   17 1
    24   13   25 1
    25   14   16 1
    26   14   24 1
    27   15   25 1
    28   16   18 1
    29   17   19 1
    30   20   21 1
    31   20   22 1
    32   21   23 1
    33   22   28 1
    34   23   29 1
    35   29   35 1
    36   32   35 2
    37   33   35 2
    38    1   36 1
    39    2   37 1
    40    3   38 1
    41   10   39 1
    42   10   40 1
    43   11   41 1
    44   11   42 1
    45   12   43 1
    46   12   44 1
    47   13   45 1
    48   13   46 1
    49   14   47 1
    50   14   48 1
    51   15   49 1
    52   16   50 1
    53   17   51 1
    54   18   52 1
    55   18   53 1
    56   18   54 1
    57   19   55 1
    58   19   56 1
    59   19   57 1
    60   20   58 1
    61   20   59 1
    62   21   60 1
    63   21   61 1
    64   22   62 1
    65   22   63 1
    66   23   64 1
    67   24   65 1
    68   26   66 1
    69   26   67 1
    70   27   68 1
    71   27   69 1
    72   28   70 1
    73   29   71 1
    74   34   72 1
@<TRIPOS>MOLECULE
1dwc_ligand_375
   72    74     0     0     0
SMALL
USER_CHARGES

mmff94s_NoEstat = 83.94
@<TRIPOS>ATOM
      1 C1          4.1516   -4.9268   -6.0134 C.ar      1 <0>        -0.1945
      2 C2          5.1102   -5.6664   -5.3240 C.ar      1 <0>        -0.0294
      3 C3          3.0917   -4.3484   -5.3213 C.ar      1 <0>        -0.0143
      4 C4          5.0159   -5.8284   -3.9344 C.ar      1 <0>        -0.1552
      5 C5          3.9303   -5.2704   -3.2304 C.ar      1 <0>         0.3076
      6 C6          2.9841   -4.5166   -3.9399 C.ar      1 <0>        -0.4908
      7 C7          1.8102   -1.5505    2.3702 C.2       1 <0>         0.5994
      8 C8          2.9466   -1.3973   -0.6457 C.2       1 <0>         0.6462
      9 C9          7.8126   -1.5752   -6.3980 C.cat     1 <0>         0.6305
     10 C10         6.0598   -6.6394   -3.2045 C.3       1 <0>        -0.0319
     11 C11         4.4920   -3.4807    2.0801 C.3       1 <0>        -0.0918
     12 C12         4.1798   -1.0721    2.8769 C.3       1 <0>        -0.0841
     13 C13         4.5658   -2.7774    0.7291 C.3       1 <0>         0.0870
     14 C14         4.6724   -6.3365   -1.1382 C.3       1 <0>         0.2023
     15 C15         3.1125   -1.0286    1.7861 C.3       1 <0>         0.0778
     16 C16         6.0942   -6.2929   -1.7077 C.3       1 <0>        -0.0746
     17 C17         4.5869   -2.5050    3.2643 C.3       1 <0>        -0.0681
     18 C18         7.0169   -7.2443   -0.9509 C.3       1 <0>        -0.0944
     19 C19         5.9882   -2.5079    3.8779 C.3       1 <0>        -0.0918
     20 C20         5.1203   -2.1076   -3.7746 C.3       1 <0>        -0.1192
     21 C21         4.5564   -1.3488   -2.5679 C.3       1 <0>        -0.0916
     22 C22         6.2766   -1.3646   -4.4322 C.3       1 <0>         0.1883
     23 C23         3.4544   -2.1251   -1.8653 C.3       1 <0>         0.1952
     24 N1          3.8111   -5.4139   -1.8535 N.pl3     1 <0>        -0.7670
     25 N2          3.5192   -1.7560    0.5781 N.am      1 <0>        -0.4509
     26 N3          8.2843   -2.2817   -7.4995 N.pl3     1 <0>        -0.8477
     27 N4          8.3735   -0.3395   -6.0942 N.pl3     1 <0>        -0.8633
     28 N5          6.7875   -2.0816   -5.5916 N.pl3     1 <0>        -0.7419
     29 N6          2.2741   -2.2179   -2.7432 N.pl3     1 <0>        -0.8860
     30 O1          1.2492   -1.0925    3.3546 O.2       1 <0>        -0.5199
     31 O2          2.0685   -0.5400   -0.7710 O.2       1 <0>        -0.6131
     32 O3          0.5666   -3.5687   -4.1193 O.2       1 <0>        -0.6576
     33 O4          1.3717   -4.4805   -1.9182 O.2       1 <0>        -0.6482
     34 O5          1.3501   -2.6026    1.6500 O.3       1 <0>        -0.6303
     35 S1          1.6226   -3.7401   -3.1398 S.o2      1 <0>         1.5193
     36 H1          4.2334   -4.7990   -7.0893 H         1 <0>         0.1426
     37 H2          5.9365   -6.1124   -5.8725 H         1 <0>         0.1398
     38 H3          2.3424   -3.7651   -5.8469 H         1 <0>         0.1599
     39 H4          5.8293   -7.7032   -3.3441 H         1 <0>         0.0574
     40 H5          7.0496   -6.4517   -3.6385 H         1 <0>         0.0629
     41 H6          3.5311   -4.0088    2.1410 H         1 <0>         0.0614
     42 H7          5.2694   -4.2509    2.1463 H         1 <0>         0.0593
     43 H8          5.0641   -0.5305    2.5137 H         1 <0>         0.0841
     44 H9          3.8399   -0.5392    3.7741 H         1 <0>         0.0679
     45 H10         5.5312   -2.2723    0.6079 H         1 <0>         0.0826
     46 H11         4.4795   -3.5150   -0.0747 H         1 <0>         0.0383
     47 H12         4.2592   -7.3502   -1.2106 H         1 <0>         0.0556
     48 H13         4.6812   -6.0651   -0.0767 H         1 <0>         0.0415
     49 H14         2.9188    0.0160    1.5141 H         1 <0>         0.0851
     50 H15         6.4892   -5.2747   -1.5904 H         1 <0>         0.0639
     51 H16         3.9047   -2.8651    4.0450 H         1 <0>         0.0584
     52 H17         7.2321   -6.8565    0.0493 H         1 <0>         0.0401
     53 H18         6.5516   -8.2290   -0.8459 H         1 <0>         0.0440
     54 H19         7.9645   -7.3661   -1.4842 H         1 <0>         0.0459
     55 H20         6.0310   -3.1862    4.7353 H         1 <0>         0.0456
     56 H21         6.7293   -2.8350    3.1425 H         1 <0>         0.0366
     57 H22         6.2606   -1.5045    4.2187 H         1 <0>         0.0474
     58 H23         5.4592   -3.1007   -3.4560 H         1 <0>         0.0800
     59 H24         4.3307   -2.2553   -4.5204 H         1 <0>         0.0681
     60 H25         4.1906   -0.3664   -2.8945 H         1 <0>         0.0740
     61 H26         5.3633   -1.1575   -1.8491 H         1 <0>         0.0631
     62 H27         7.1023   -1.2161   -3.7290 H         1 <0>         0.0970
     63 H28         5.9419   -0.3800   -4.7739 H         1 <0>         0.0725
     64 H29         3.7703   -3.1244   -1.5692 H         1 <0>         0.0839
     65 H30         2.9760   -5.0603   -1.4031 H         1 <0>         0.4531
     66 H31         7.9061   -3.1889   -7.7584 H         1 <0>         0.4798
     67 H32         9.0306   -1.9064   -8.0803 H         1 <0>         0.4881
     68 H33         8.0525    0.2034   -5.2962 H         1 <0>         0.4801
     69 H34         9.1192    0.0544   -6.6629 H         1 <0>         0.4806
     70 H35         6.3957   -2.9912   -5.8400 H         1 <0>         0.4689
     71 H36         1.6613   -1.3957   -2.7560 H         1 <0>         0.4505
     72 H37         0.5099   -2.9556    2.0129 H         1 <0>         0.4443
@<TRIPOS>BOND
     1    1    2 ar
     2    1    3 ar
     3    2    4 ar
     4    3    6 ar
     5    4    5 ar
     6    4   10 1
     7    5    6 ar
     8    5   24 1
     9    6   35 1
    10    7   15 1
    11    7   30 2
    12    7   34 1
    13    8   23 1
    14    8   25 am
    15    8   31 2
    16    9   26 1
    17    9   27 1
    18    9   28 1
    19   10   16 1
    20   11   13 1
    21   11   17 1
    22   12   15 1
    23   12   17 1
    24   13   25 1
    25   14   16 1
    26   14   24 1
    27   15   25 1
    28   16   18 1
    29   17   19 1
    30   20   21 1
    31   20   22 1
    32   21   23 1
    33   22   28 1
    34   23   29 1
    35   29   35 1
    36   32   35 2
    37   33   35 2
    38    1   36 1
    39    2   37 1
    40    3   38 1
    41   10   39 1
    42   10   40 1
    43   11   41 1
    44   11   42 1
    45   12   43 1
    46   12   44 1
    47   13   45 1
    48   13   46 1
    49   14   47 1
    50   14   48 1
    51   15   49 1
    52   16   50 1
    53   17   51 1
    54   18   52 1
    55   18   53 1
    56   18   54 1
    57   19   55 1
    58   19   56 1
    59   19   57 1
    60   20   58 1
    61   20   59 1
    62   21   60 1
    63   21   61 1
    64   22   62 1
    65   22   63 1
    66   23   64 1
    67   24   65 1
    68   26   66 1
    69   26   67 1
    70   27   68 1
    71   27   69 1
    72   28   70 1
    73   29   71 1
    74   34   72 1
@<TRIPOS>MOLECULE
1dwc_ligand_376
   72    74     0     0     0
SMALL
USER_CHARGES

mmff94s_NoEstat = 84.05
@<TRIPOS>ATOM
      1 C1          4.4928   -6.3998   -3.5466 C.ar      1 <0>        -0.1945
      2 C2          3.6126   -7.2143   -2.8372 C.ar      1 <0>        -0.0294
      3 C3          4.0872   -5.1340   -3.9593 C.ar      1 <0>        -0.0143
      4 C4          2.3199   -6.7643   -2.5325 C.ar      1 <0>        -0.1552
      5 C5          1.8919   -5.4957   -2.9718 C.ar      1 <0>         0.3076
      6 C6          2.7974   -4.6848   -3.6711 C.ar      1 <0>        -0.4908
      7 C7          0.5484   -0.8946    1.4535 C.2       1 <0>         0.5994
      8 C8          2.9466   -1.3973   -0.6457 C.2       1 <0>         0.6462
      9 C9          7.0979    2.0607   -3.3281 C.cat     1 <0>         0.6305
     10 C10         1.3769   -7.6633   -1.7693 C.3       1 <0>        -0.0319
     11 C11         1.0071   -4.1523    1.0299 C.3       1 <0>        -0.0918
     12 C12         1.8830   -2.5004    2.7729 C.3       1 <0>        -0.0841
     13 C13         2.2320   -3.6460    0.2757 C.3       1 <0>         0.0870
     14 C14        -0.3833   -5.9141   -2.1273 C.3       1 <0>         0.2023
     15 C15         1.9200   -1.5343    1.5913 C.3       1 <0>         0.0778
     16 C16         0.2516   -6.8579   -1.1008 C.3       1 <0>        -0.0746
     17 C17         1.0079   -3.7392    2.5107 C.3       1 <0>        -0.0681
     18 C18        -0.7940   -7.7879   -0.4914 C.3       1 <0>        -0.0944
     19 C19         1.4463   -4.8953    3.4115 C.3       1 <0>        -0.0918
     20 C20         5.7415   -1.0578   -1.6401 C.3       1 <0>        -0.1192
     21 C21         4.5564   -1.3488   -2.5679 C.3       1 <0>        -0.0916
     22 C22         6.8115   -0.2136   -2.3213 C.3       1 <0>         0.1883
     23 C23         3.4544   -2.1251   -1.8653 C.3       1 <0>         0.1952
     24 N1          0.6173   -5.0232   -2.6840 N.pl3     1 <0>        -0.7670
     25 N2          2.3654   -2.1840    0.3531 N.am      1 <0>        -0.4509
     26 N3          6.5776    3.2920   -3.7129 N.pl3     1 <0>        -0.8477
     27 N4          8.4467    1.7979   -3.5420 N.pl3     1 <0>        -0.8633
     28 N5          6.2936    1.0837   -2.7315 N.pl3     1 <0>        -0.7419
     29 N6          2.2741   -2.2179   -2.7432 N.pl3     1 <0>        -0.8860
     30 O1         -0.0257   -0.2688    2.3322 O.2       1 <0>        -0.5199
     31 O2          3.0580   -0.1705   -0.5795 O.2       1 <0>        -0.6131
     32 O3          3.4786   -2.5500   -4.9955 O.2       1 <0>        -0.6576
     33 O4          1.0452   -3.1536   -4.7996 O.2       1 <0>        -0.6482
     34 O5          0.0400   -1.1141    0.2163 O.3       1 <0>        -0.6303
     35 S1          2.3700   -3.0669   -4.2159 S.o2      1 <0>         1.5193
     36 H1          5.4954   -6.7511   -3.7740 H         1 <0>         0.1426
     37 H2          3.9390   -8.2006   -2.5161 H         1 <0>         0.1398
     38 H3          4.7662   -4.4885   -4.5072 H         1 <0>         0.1599
     39 H4          0.9565   -8.3959   -2.4699 H         1 <0>         0.0574
     40 H5          1.9286   -8.2156   -0.9986 H         1 <0>         0.0629
     41 H6          0.1116   -3.7326    0.5525 H         1 <0>         0.0614
     42 H7          0.9264   -5.2409    0.9288 H         1 <0>         0.0593
     43 H8          2.9117   -2.8226    2.9853 H         1 <0>         0.0841
     44 H9          1.5267   -1.9929    3.6785 H         1 <0>         0.0679
     45 H10         3.1493   -4.0774    0.6933 H         1 <0>         0.0826
     46 H11         2.1726   -3.9558   -0.7722 H         1 <0>         0.0383
     47 H12        -0.8526   -6.4855   -2.9377 H         1 <0>         0.0556
     48 H13        -1.1701   -5.3152   -1.6553 H         1 <0>         0.0415
     49 H14         2.6095   -0.7128    1.8202 H         1 <0>         0.0851
     50 H15         0.6827   -6.2563   -0.2891 H         1 <0>         0.0639
     51 H16        -0.0273   -3.5034    2.7887 H         1 <0>         0.0584
     52 H17        -1.4531   -7.2348    0.1844 H         1 <0>         0.0401
     53 H18        -1.4073   -8.2428   -1.2750 H         1 <0>         0.0440
     54 H19        -0.3115   -8.5886    0.0770 H         1 <0>         0.0459
     55 H20         0.5753   -5.4296    3.8024 H         1 <0>         0.0456
     56 H21         2.0638   -5.6051    2.8530 H         1 <0>         0.0366
     57 H22         2.0303   -4.5225    4.2583 H         1 <0>         0.0474
     58 H23         5.3842   -0.5386   -0.7426 H         1 <0>         0.0800
     59 H24         6.1956   -2.0004   -1.3135 H         1 <0>         0.0681
     60 H25         4.9119   -1.8947   -3.4517 H         1 <0>         0.0740
     61 H26         4.1396   -0.4017   -2.9334 H         1 <0>         0.0631
     62 H27         7.2104   -0.7195   -3.2063 H         1 <0>         0.0970
     63 H28         7.6418   -0.0344   -1.6309 H         1 <0>         0.0725
     64 H29         3.7703   -3.1244   -1.5692 H         1 <0>         0.0839
     65 H30         0.3298   -4.1388   -3.0846 H         1 <0>         0.4531
     66 H31         5.5979    3.5274   -3.5781 H         1 <0>         0.4798
     67 H32         7.1694    3.9967   -4.1467 H         1 <0>         0.4881
     68 H33         8.8596    0.9082   -3.2729 H         1 <0>         0.4801
     69 H34         9.0560    2.4894   -3.9724 H         1 <0>         0.4806
     70 H35         5.3074    1.3059   -2.5875 H         1 <0>         0.4689
     71 H36         1.3641   -2.1281   -2.2790 H         1 <0>         0.4505
     72 H37        -0.8473   -0.7100    0.1079 H         1 <0>         0.4443
@<TRIPOS>BOND
     1    1    2 ar
     2    1    3 ar
     3    2    4 ar
     4    3    6 ar
     5    4    5 ar
     6    4   10 1
     7    5    6 ar
     8    5   24 1
     9    6   35 1
    10    7   15 1
    11    7   30 2
    12    7   34 1
    13    8   23 1
    14    8   25 am
    15    8   31 2
    16    9   26 1
    17    9   27 1
    18    9   28 1
    19   10   16 1
    20   11   13 1
    21   11   17 1
    22   12   15 1
    23   12   17 1
    24   13   25 1
    25   14   16 1
    26   14   24 1
    27   15   25 1
    28   16   18 1
    29   17   19 1
    30   20   21 1
    31   20   22 1
    32   21   23 1
    33   22   28 1
    34   23   29 1
    35   29   35 1
    36   32   35 2
    37   33   35 2
    38    1   36 1
    39    2   37 1
    40    3   38 1
    41   10   39 1
    42   10   40 1
    43   11   41 1
    44   11   42 1
    45   12   43 1
    46   12   44 1
    47   13   45 1
    48   13   46 1
    49   14   47 1
    50   14   48 1
    51   15   49 1
    52   16   50 1
    53   17   51 1
    54   18   52 1
    55   18   53 1
    56   18   54 1
    57   19   55 1
    58   19   56 1
    59   19   57 1
    60   20   58 1
    61   20   59 1
    62   21   60 1
    63   21   61 1
    64   22   62 1
    65   22   63 1
    66   23   64 1
    67   24   65 1
    68   26   66 1
    69   26   67 1
    70   27   68 1
    71   27   69 1
    72   28   70 1
    73   29   71 1
    74   34   72 1
@<TRIPOS>MOLECULE
1dwc_ligand_377
   72    74     0     0     0
SMALL
USER_CHARGES

mmff94s_NoEstat = 84.07
@<TRIPOS>ATOM
      1 C1         -1.3865    0.4483    6.9697 C.ar      1 <0>        -0.1945
      2 C2         -0.5343   -0.2259    7.8418 C.ar      1 <0>        -0.0294
      3 C3         -1.9752   -0.2339    5.9091 C.ar      1 <0>        -0.0143
      4 C4         -0.2690   -1.5907    7.6596 C.ar      1 <0>        -0.1552
      5 C5         -0.8382   -2.2818    6.5715 C.ar      1 <0>         0.3076
      6 C6         -1.7052   -1.5894    5.7138 C.ar      1 <0>        -0.4908
      7 C7          3.5686   -3.4379    3.7704 C.2       1 <0>         0.5994
      8 C8          0.8654   -1.4427    3.2413 C.2       1 <0>         0.6462
      9 C9          0.2237   -3.7376   -2.9912 C.cat     1 <0>         0.6305
     10 C10         0.6628   -2.3037    8.6102 C.3       1 <0>        -0.0319
     11 C11         3.4440   -0.0674    5.4719 C.3       1 <0>        -0.0918
     12 C12         3.1682   -2.4952    6.0163 C.3       1 <0>        -0.0841
     13 C13         2.9000   -0.3276    4.0730 C.3       1 <0>         0.0870
     14 C14         0.4361   -4.3139    7.1291 C.3       1 <0>         0.2023
     15 C15         2.5392   -2.7371    4.6417 C.3       1 <0>         0.0778
     16 C16         0.4391   -3.8238    8.5808 C.3       1 <0>        -0.0746
     17 C17         4.1435   -1.3104    6.0281 C.3       1 <0>        -0.0681
     18 C18         1.5050   -4.5457    9.4006 C.3       1 <0>        -0.0944
     19 C19         4.6673   -1.0527    7.4396 C.3       1 <0>        -0.0918
     20 C20         0.0249   -2.8727    0.7002 C.3       1 <0>        -0.1192
     21 C21         0.3004   -3.5693    2.0376 C.3       1 <0>        -0.0916
     22 C22         0.2602   -3.7963   -0.4886 C.3       1 <0>         0.1883
     23 C23        -0.0078   -2.6730    3.2260 C.3       1 <0>         0.1952
     24 N1         -0.5939   -3.6341    6.3665 N.pl3     1 <0>        -0.7670
     25 N2          2.0252   -1.5038    4.0223 N.am      1 <0>        -0.4509
     26 N3         -0.0152   -3.0669   -4.1862 N.pl3     1 <0>        -0.8477
     27 N4          0.6744   -5.0526   -3.0302 N.pl3     1 <0>        -0.8633
     28 N5          0.0202   -3.1173   -1.7538 N.pl3     1 <0>        -0.7419
     29 N6         -1.3760   -2.1385    3.1042 N.pl3     1 <0>        -0.8860
     30 O1          4.3335   -2.8779    2.9993 O.2       1 <0>        -0.5199
     31 O2          0.5240   -0.4555    2.5844 O.2       1 <0>        -0.6131
     32 O3         -2.5906   -3.7967    4.6561 O.2       1 <0>        -0.6576
     33 O4         -3.7019   -1.6181    4.0705 O.2       1 <0>        -0.6482
     34 O5          3.5241   -4.7791    3.9616 O.3       1 <0>        -0.6303
     35 S1         -2.5018   -2.3799    4.3583 S.o2      1 <0>         1.5193
     36 H1         -1.5937    1.5043    7.1196 H         1 <0>         0.1426
     37 H2         -0.0811    0.3144    8.6695 H         1 <0>         0.1398
     38 H3         -2.6454    0.2794    5.2269 H         1 <0>         0.1599
     39 H4          1.6952   -2.0650    8.3246 H         1 <0>         0.0574
     40 H5          0.5054   -1.9381    9.6324 H         1 <0>         0.0629
     41 H6          4.1435    0.7764    5.4419 H         1 <0>         0.0614
     42 H7          2.6191    0.2214    6.1357 H         1 <0>         0.0593
     43 H8          2.3618   -2.2928    6.7345 H         1 <0>         0.0841
     44 H9          3.6813   -3.3988    6.3690 H         1 <0>         0.0679
     45 H10         2.3679    0.5618    3.7197 H         1 <0>         0.0826
     46 H11         3.7232   -0.5081    3.3711 H         1 <0>         0.0383
     47 H12         1.4122   -4.1368    6.6605 H         1 <0>         0.0556
     48 H13         0.2510   -5.3933    7.0942 H         1 <0>         0.0415
     49 H14         1.7211   -3.4548    4.7590 H         1 <0>         0.0851
     50 H15        -0.5391   -4.0450    9.0289 H         1 <0>         0.0639
     51 H16         5.0063   -1.5479    5.3937 H         1 <0>         0.0584
     52 H17         1.2125   -5.5843    9.5819 H         1 <0>         0.0401
     53 H18         2.4629   -4.5449    8.8719 H         1 <0>         0.0440
     54 H19         1.6448   -4.0535   10.3677 H         1 <0>         0.0459
     55 H20         4.2777   -1.8006    8.1367 H         1 <0>         0.0456
     56 H21         5.7602   -1.1000    7.4588 H         1 <0>         0.0366
     57 H22         4.3590   -0.0627    7.7891 H         1 <0>         0.0474
     58 H23        -1.0105   -2.5120    0.6824 H         1 <0>         0.0800
     59 H24         0.6776   -1.9980    0.5976 H         1 <0>         0.0681
     60 H25         1.3460   -3.9033    2.0652 H         1 <0>         0.0740
     61 H26        -0.3175   -4.4733    2.1109 H         1 <0>         0.0631
     62 H27        -0.3909   -4.6751   -0.4416 H         1 <0>         0.0970
     63 H28         1.2981   -4.1440   -0.4920 H         1 <0>         0.0725
     64 H29         0.1003   -3.1895    4.1787 H         1 <0>         0.0839
     65 H30        -0.9636   -4.0687    5.5300 H         1 <0>         0.4531
     66 H31        -0.3470   -2.1063   -4.2064 H         1 <0>         0.4798
     67 H32         0.1347   -3.5257   -5.0818 H         1 <0>         0.4881
     68 H33         0.8589   -5.5723   -2.1756 H         1 <0>         0.4801
     69 H34         0.8324   -5.5290   -3.9149 H         1 <0>         0.4806
     70 H35        -0.3110   -2.1514   -1.7574 H         1 <0>         0.4689
     71 H36        -1.4850   -1.3266    2.4871 H         1 <0>         0.4505
     72 H37         4.1809   -5.2504    3.4059 H         1 <0>         0.4443
@<TRIPOS>BOND
     1    1    2 ar
     2    1    3 ar
     3    2    4 ar
     4    3    6 ar
     5    4    5 ar
     6    4   10 1
     7    5    6 ar
     8    5   24 1
     9    6   35 1
    10    7   15 1
    11    7   30 2
    12    7   34 1
    13    8   23 1
    14    8   25 am
    15    8   31 2
    16    9   26 1
    17    9   27 1
    18    9   28 1
    19   10   16 1
    20   11   13 1
    21   11   17 1
    22   12   15 1
    23   12   17 1
    24   13   25 1
    25   14   16 1
    26   14   24 1
    27   15   25 1
    28   16   18 1
    29   17   19 1
    30   20   21 1
    31   20   22 1
    32   21   23 1
    33   22   28 1
    34   23   29 1
    35   29   35 1
    36   32   35 2
    37   33   35 2
    38    1   36 1
    39    2   37 1
    40    3   38 1
    41   10   39 1
    42   10   40 1
    43   11   41 1
    44   11   42 1
    45   12   43 1
    46   12   44 1
    47   13   45 1
    48   13   46 1
    49   14   47 1
    50   14   48 1
    51   15   49 1
    52   16   50 1
    53   17   51 1
    54   18   52 1
    55   18   53 1
    56   18   54 1
    57   19   55 1
    58   19   56 1
    59   19   57 1
    60   20   58 1
    61   20   59 1
    62   21   60 1
    63   21   61 1
    64   22   62 1
    65   22   63 1
    66   23   64 1
    67   24   65 1
    68   26   66 1
    69   26   67 1
    70   27   68 1
    71   27   69 1
    72   28   70 1
    73   29   71 1
    74   34   72 1
@<TRIPOS>MOLECULE
1dwc_ligand_378
   72    74     0     0     0
SMALL
USER_CHARGES

mmff94s_NoEstat = 84.08
@<TRIPOS>ATOM
      1 C1         -2.7374   -5.2793   -0.2736 C.ar      1 <0>        -0.1945
      2 C2         -3.2110   -4.3658   -1.2130 C.ar      1 <0>        -0.0294
      3 C3         -2.5916   -4.8947    1.0560 C.ar      1 <0>        -0.0143
      4 C4         -3.5461   -3.0604   -0.8258 C.ar      1 <0>        -0.1552
      5 C5         -3.3740   -2.6546    0.5126 C.ar      1 <0>         0.3076
      6 C6         -2.9106   -3.5930    1.4461 C.ar      1 <0>        -0.4908
      7 C7          2.0323   -3.0842    5.9821 C.2       1 <0>         0.5994
      8 C8          0.8654   -1.4427    3.2413 C.2       1 <0>         0.6462
      9 C9          1.3456   -6.9412   -0.3642 C.cat     1 <0>         0.6305
     10 C10        -4.0509   -2.0814   -1.8586 C.3       1 <0>        -0.0319
     11 C11         3.0911    0.4998    5.4298 C.3       1 <0>        -0.0918
     12 C12         1.5534   -0.8369    6.8842 C.3       1 <0>        -0.0841
     13 C13         2.8818   -0.5022    4.3015 C.3       1 <0>         0.0870
     14 C14        -4.0009   -0.3416   -0.0541 C.3       1 <0>         0.2023
     15 C15         1.2754   -1.7924    5.7207 C.3       1 <0>         0.0778
     16 C16        -4.8257   -0.9262   -1.2054 C.3       1 <0>        -0.0746
     17 C17         2.9339   -0.1724    6.7962 C.3       1 <0>        -0.0681
     18 C18        -5.1690    0.1479   -2.2340 C.3       1 <0>        -0.0944
     19 C19         3.1216    0.8403    7.9242 C.3       1 <0>        -0.0918
     20 C20         1.7689   -4.0083    2.0091 C.3       1 <0>        -0.1192
     21 C21         0.3004   -3.5693    2.0376 C.3       1 <0>        -0.0916
     22 C22         2.0958   -4.8429    0.7769 C.3       1 <0>         0.1883
     23 C23        -0.0078   -2.6730    3.2260 C.3       1 <0>         0.1952
     24 N1         -3.6984   -1.3681    0.9253 N.pl3     1 <0>        -0.7670
     25 N2          1.5999   -1.2067    4.4091 N.am      1 <0>        -0.4509
     26 N3          0.5495   -8.0810   -0.4079 N.pl3     1 <0>        -0.8477
     27 N4          2.2318   -6.6929   -1.4069 N.pl3     1 <0>        -0.8633
     28 N5          1.2730   -6.0418    0.7049 N.pl3     1 <0>        -0.7419
     29 N6         -1.3760   -2.1385    3.1042 N.pl3     1 <0>        -0.8860
     30 O1          2.3575   -3.4961    7.0858 O.2       1 <0>        -0.5199
     31 O2          0.8891   -0.7105    2.2483 O.2       1 <0>        -0.6131
     32 O3         -3.8876   -2.4594    3.5758 O.2       1 <0>        -0.6576
     33 O4         -2.3275   -4.4157    3.8277 O.2       1 <0>        -0.6482
     34 O5          2.3038   -3.7238    4.8184 O.3       1 <0>        -0.6303
     35 S1         -2.7118   -3.1932    3.1483 S.o2      1 <0>         1.5193
     36 H1         -2.4856   -6.2914   -0.5781 H         1 <0>         0.1426
     37 H2         -3.3245   -4.6759   -2.2491 H         1 <0>         0.1398
     38 H3         -2.2294   -5.5995    1.7977 H         1 <0>         0.1599
     39 H4         -3.1889   -1.6944   -2.4168 H         1 <0>         0.0574
     40 H5         -4.7076   -2.5954   -2.5713 H         1 <0>         0.0629
     41 H6          4.0885    0.9467    5.3426 H         1 <0>         0.0614
     42 H7          2.3630    1.3153    5.3324 H         1 <0>         0.0593
     43 H8          0.7851   -0.0517    6.8776 H         1 <0>         0.0841
     44 H9          1.4567   -1.3607    7.8437 H         1 <0>         0.0679
     45 H10         2.9560    0.0148    3.3392 H         1 <0>         0.0826
     46 H11         3.6704   -1.2643    4.3172 H         1 <0>         0.0383
     47 H12        -3.0647    0.0891   -0.4306 H         1 <0>         0.0556
     48 H13        -4.5550    0.4664    0.4366 H         1 <0>         0.0415
     49 H14         0.2160   -2.0663    5.7460 H         1 <0>         0.0851
     50 H15        -5.7679   -1.3185   -0.7994 H         1 <0>         0.0639
     51 H16         3.7104   -0.9392    6.9078 H         1 <0>         0.0584
     52 H17        -5.9177    0.8380   -1.8337 H         1 <0>         0.0401
     53 H18        -4.2777    0.7235   -2.5010 H         1 <0>         0.0440
     54 H19        -5.5713   -0.3064   -3.1444 H         1 <0>         0.0459
     55 H20         2.2527    0.8404    8.5891 H         1 <0>         0.0456
     56 H21         4.0086    0.5961    8.5164 H         1 <0>         0.0366
     57 H22         3.2450    1.8489    7.5186 H         1 <0>         0.0474
     58 H23         2.4156   -3.1229    2.0318 H         1 <0>         0.0800
     59 H24         1.9949   -4.6013    2.9028 H         1 <0>         0.0681
     60 H25        -0.3448   -4.4577    2.0448 H         1 <0>         0.0740
     61 H26         0.0666   -3.0218    1.1158 H         1 <0>         0.0631
     62 H27         3.1472   -5.1474    0.7729 H         1 <0>         0.0970
     63 H28         1.9091   -4.2592   -0.1301 H         1 <0>         0.0725
     64 H29         0.1003   -3.1895    4.1787 H         1 <0>         0.0839
     65 H30        -3.4869   -1.1007    1.8788 H         1 <0>         0.4531
     66 H31        -0.1107   -8.3043    0.3321 H         1 <0>         0.4798
     67 H32         0.6091   -8.7303   -1.1889 H         1 <0>         0.4881
     68 H33         2.8285   -5.8692   -1.4068 H         1 <0>         0.4801
     69 H34         2.3056   -7.3283   -2.1978 H         1 <0>         0.4806
     70 H35         0.6129   -6.2511    1.4553 H         1 <0>         0.4689
     71 H36        -1.5021   -1.1633    3.3956 H         1 <0>         0.4505
     72 H37         2.7944   -4.5604    4.9659 H         1 <0>         0.4443
@<TRIPOS>BOND
     1    1    2 ar
     2    1    3 ar
     3    2    4 ar
     4    3    6 ar
     5    4    5 ar
     6    4   10 1
     7    5    6 ar
     8    5   24 1
     9    6   35 1
    10    7   15 1
    11    7   30 2
    12    7   34 1
    13    8   23 1
    14    8   25 am
    15    8   31 2
    16    9   26 1
    17    9   27 1
    18    9   28 1
    19   10   16 1
    20   11   13 1
    21   11   17 1
    22   12   15 1
    23   12   17 1
    24   13   25 1
    25   14   16 1
    26   14   24 1
    27   15   25 1
    28   16   18 1
    29   17   19 1
    30   20   21 1
    31   20   22 1
    32   21   23 1
    33   22   28 1
    34   23   29 1
    35   29   35 1
    36   32   35 2
    37   33   35 2
    38    1   36 1
    39    2   37 1
    40    3   38 1
    41   10   39 1
    42   10   40 1
    43   11   41 1
    44   11   42 1
    45   12   43 1
    46   12   44 1
    47   13   45 1
    48   13   46 1
    49   14   47 1
    50   14   48 1
    51   15   49 1
    52   16   50 1
    53   17   51 1
    54   18   52 1
    55   18   53 1
    56   18   54 1
    57   19   55 1
    58   19   56 1
    59   19   57 1
    60   20   58 1
    61   20   59 1
    62   21   60 1
    63   21   61 1
    64   22   62 1
    65   22   63 1
    66   23   64 1
    67   24   65 1
    68   26   66 1
    69   26   67 1
    70   27   68 1
    71   27   69 1
    72   28   70 1
    73   29   71 1
    74   34   72 1
@<TRIPOS>MOLECULE
1dwc_ligand_379
   72    74     0     0     0
SMALL
USER_CHARGES

mmff94s_NoEstat = 84.09
@<TRIPOS>ATOM
      1 C1         -0.1021   -7.1683    0.7355 C.ar      1 <0>        -0.1945
      2 C2         -0.5792   -8.1239    1.6301 C.ar      1 <0>        -0.0294
      3 C3          0.6637   -6.1037    1.2012 C.ar      1 <0>        -0.0143
      4 C4         -0.2955   -8.0178    2.9994 C.ar      1 <0>        -0.1552
      5 C5          0.5031   -6.9592    3.4747 C.ar      1 <0>         0.3076
      6 C6          0.9609   -5.9987    2.5610 C.ar      1 <0>        -0.4908
      7 C7         -0.2549    0.4306    0.6330 C.2       1 <0>         0.5994
      8 C8          0.8654   -1.4427    3.2413 C.2       1 <0>         0.6462
      9 C9         -3.2174   -1.4380    8.5188 C.cat     1 <0>         0.6305
     10 C10        -0.8145   -9.0679    3.9520 C.3       1 <0>        -0.0319
     11 C11         3.3665   -0.6443    0.6676 C.3       1 <0>        -0.0918
     12 C12         1.2181   -1.2005   -0.4907 C.3       1 <0>        -0.0841
     13 C13         2.5847   -0.2704    1.9206 C.3       1 <0>         0.0870
     14 C14         0.4940   -7.9005    5.7515 C.3       1 <0>         0.2023
     15 C15         0.4427   -0.9096    0.7969 C.3       1 <0>         0.0778
     16 C16        -0.8357   -8.5817    5.4103 C.3       1 <0>        -0.0746
     17 C17         2.5288   -0.4088   -0.5919 C.3       1 <0>        -0.0681
     18 C18        -2.0342   -7.6681    5.6911 C.3       1 <0>        -0.0944
     19 C19         3.3078   -0.8065   -1.8442 C.3       1 <0>        -0.0918
     20 C20        -1.0866   -2.1427    5.4567 C.3       1 <0>        -0.1192
     21 C21        -1.3133   -2.4479    3.9716 C.3       1 <0>        -0.0916
     22 C22        -2.3970   -1.9935    6.2196 C.3       1 <0>         0.1883
     23 C23        -0.0078   -2.6730    3.2260 C.3       1 <0>         0.1952
     24 N1          0.7943   -6.8242    4.8264 N.pl3     1 <0>        -0.7670
     25 N2          1.2915   -0.9578    1.9994 N.am      1 <0>        -0.4509
     26 N3         -2.9736   -1.1414    9.8558 N.pl3     1 <0>        -0.8477
     27 N4         -4.5309   -1.4955    8.0658 N.pl3     1 <0>        -0.8633
     28 N5         -2.1703   -1.6789    7.6229 N.pl3     1 <0>        -0.7419
     29 N6          0.7961   -3.6905    3.9267 N.pl3     1 <0>        -0.8860
     30 O1          0.1931    1.5051    1.0045 O.2       1 <0>        -0.5199
     31 O2          1.1650   -0.9321    4.3240 O.2       1 <0>        -0.6131
     32 O3          2.9489   -5.1033    3.9827 O.2       1 <0>        -0.6576
     33 O4          2.3147   -3.9087    1.8626 O.2       1 <0>        -0.6482
     34 O5         -1.4521    0.2749    0.0168 O.3       1 <0>        -0.6303
     35 S1          1.9328   -4.6215    3.0666 S.o2      1 <0>         1.5193
     36 H1         -0.3304   -7.2521   -0.3236 H         1 <0>         0.1426
     37 H2         -1.1793   -8.9508    1.2577 H         1 <0>         0.1398
     38 H3          1.0358   -5.3499    0.5144 H         1 <0>         0.1599
     39 H4         -1.8224   -9.3834    3.6556 H         1 <0>         0.0574
     40 H5         -0.1575   -9.9435    3.8733 H         1 <0>         0.0629
     41 H6          4.2893   -0.0541    0.6219 H         1 <0>         0.0614
     42 H7          3.6617   -1.6999    0.7239 H         1 <0>         0.0593
     43 H8          1.4535   -2.2733   -0.5175 H         1 <0>         0.0841
     44 H9          0.5944   -0.9953   -1.3701 H         1 <0>         0.0679
     45 H10         3.1909   -0.4908    2.8053 H         1 <0>         0.0826
     46 H11         2.3782    0.8066    1.9340 H         1 <0>         0.0383
     47 H12         0.4682   -7.5028    6.7722 H         1 <0>         0.0556
     48 H13         1.3063   -8.6368    5.7145 H         1 <0>         0.0415
     49 H14        -0.3616   -1.6465    0.8882 H         1 <0>         0.0851
     50 H15        -0.9553   -9.4568    6.0608 H         1 <0>         0.0639
     51 H16         2.2982    0.6607   -0.6719 H         1 <0>         0.0584
     52 H17        -2.5659   -7.4356    4.7636 H         1 <0>         0.0401
     53 H18        -2.7347   -8.1530    6.3776 H         1 <0>         0.0440
     54 H19        -1.7034   -6.7283    6.1433 H         1 <0>         0.0459
     55 H20         2.6382   -1.2449   -2.5902 H         1 <0>         0.0456
     56 H21         3.7937    0.0674   -2.2885 H         1 <0>         0.0366
     57 H22         4.0794   -1.5424   -1.5992 H         1 <0>         0.0474
     58 H23        -0.4913   -2.9455    5.9081 H         1 <0>         0.0800
     59 H24        -0.5143   -1.2136    5.5600 H         1 <0>         0.0681
     60 H25        -1.8840   -1.6286    3.5148 H         1 <0>         0.0740
     61 H26        -1.9315   -3.3495    3.8758 H         1 <0>         0.0631
     62 H27        -2.9930   -2.9100    6.1652 H         1 <0>         0.0970
     63 H28        -2.9889   -1.1790    5.7901 H         1 <0>         0.0725
     64 H29        -0.1638   -2.9774    2.1921 H         1 <0>         0.0839
     65 H30         1.4333   -6.0909    5.1082 H         1 <0>         0.4531
     66 H31        -2.0306   -1.0905   10.2318 H         1 <0>         0.4798
     67 H32        -3.7410   -0.9681   10.5009 H         1 <0>         0.4881
     68 H33        -4.7448   -1.7097    7.0948 H         1 <0>         0.4801
     69 H34        -5.3125   -1.3238    8.6938 H         1 <0>         0.4806
     70 H35        -1.2168   -1.6295    7.9850 H         1 <0>         0.4689
     71 H36         0.9382   -3.5340    4.9302 H         1 <0>         0.4505
     72 H37        -1.9197    1.1298   -0.0968 H         1 <0>         0.4443
@<TRIPOS>BOND
     1    1    2 ar
     2    1    3 ar
     3    2    4 ar
     4    3    6 ar
     5    4    5 ar
     6    4   10 1
     7    5    6 ar
     8    5   24 1
     9    6   35 1
    10    7   15 1
    11    7   30 2
    12    7   34 1
    13    8   23 1
    14    8   25 am
    15    8   31 2
    16    9   26 1
    17    9   27 1
    18    9   28 1
    19   10   16 1
    20   11   13 1
    21   11   17 1
    22   12   15 1
    23   12   17 1
    24   13   25 1
    25   14   16 1
    26   14   24 1
    27   15   25 1
    28   16   18 1
    29   17   19 1
    30   20   21 1
    31   20   22 1
    32   21   23 1
    33   22   28 1
    34   23   29 1
    35   29   35 1
    36   32   35 2
    37   33   35 2
    38    1   36 1
    39    2   37 1
    40    3   38 1
    41   10   39 1
    42   10   40 1
    43   11   41 1
    44   11   42 1
    45   12   43 1
    46   12   44 1
    47   13   45 1
    48   13   46 1
    49   14   47 1
    50   14   48 1
    51   15   49 1
    52   16   50 1
    53   17   51 1
    54   18   52 1
    55   18   53 1
    56   18   54 1
    57   19   55 1
    58   19   56 1
    59   19   57 1
    60   20   58 1
    61   20   59 1
    62   21   60 1
    63   21   61 1
    64   22   62 1
    65   22   63 1
    66   23   64 1
    67   24   65 1
    68   26   66 1
    69   26   67 1
    70   27   68 1
    71   27   69 1
    72   28   70 1
    73   29   71 1
    74   34   72 1
@<TRIPOS>MOLECULE
1dwc_ligand_380
   72    74     0     0     0
SMALL
USER_CHARGES

mmff94s_NoEstat = 84.11
@<TRIPOS>ATOM
      1 C1          6.8969   -5.8233   -4.1578 C.ar      1 <0>        -0.1945
      2 C2          6.5155   -5.4434   -5.4428 C.ar      1 <0>        -0.0294
      3 C3          6.7841   -4.9198   -3.1054 C.ar      1 <0>        -0.0143
      4 C4          6.0214   -4.1532   -5.6837 C.ar      1 <0>        -0.1552
      5 C5          5.8772   -3.2424   -4.6188 C.ar      1 <0>         0.3076
      6 C6          6.2812   -3.6382   -3.3354 C.ar      1 <0>        -0.4908
      7 C7          2.8752    1.3115    1.1058 C.2       1 <0>         0.5994
      8 C8          2.9466   -1.3973   -0.6457 C.2       1 <0>         0.6462
      9 C9          0.3678   -6.6076   -3.6872 C.cat     1 <0>         0.6305
     10 C10         5.6056   -3.7630   -7.0817 C.3       1 <0>        -0.0319
     11 C11         2.3641    2.0271   -2.0925 C.3       1 <0>        -0.0918
     12 C12         0.7649    1.6065   -0.1433 C.3       1 <0>        -0.0841
     13 C13         2.2856    0.5067   -2.1800 C.3       1 <0>         0.0870
     14 C14         4.8015   -1.5941   -6.1006 C.3       1 <0>         0.2023
     15 C15         1.8211    0.5897    0.2827 C.3       1 <0>         0.0778
     16 C16         5.5456   -2.2390   -7.2748 C.3       1 <0>        -0.0746
     17 C17         1.2898    2.6259   -1.1701 C.3       1 <0>        -0.0681
     18 C18         6.9396   -1.6321   -7.4703 C.3       1 <0>        -0.0944
     19 C19         0.1276    3.2108   -1.9746 C.3       1 <0>        -0.0918
     20 C20         2.8965   -3.7759   -3.7050 C.3       1 <0>        -0.1192
     21 C21         2.4114   -3.0756   -2.4306 C.3       1 <0>        -0.0916
     22 C22         1.8232   -4.6695   -4.3142 C.3       1 <0>         0.1883
     23 C23         3.4544   -2.1251   -1.8653 C.3       1 <0>         0.1952
     24 N1          5.3980   -1.9555   -4.8285 N.pl3     1 <0>        -0.7670
     25 N2          2.3949   -0.1309   -0.8598 N.am      1 <0>        -0.4509
     26 N3         -0.0297   -7.5831   -2.7787 N.pl3     1 <0>        -0.8477
     27 N4         -0.2625   -6.5368   -4.9248 N.pl3     1 <0>        -0.8633
     28 N5          1.3862   -5.6985   -3.3816 N.pl3     1 <0>        -0.7419
     29 N6          4.6097   -2.8934   -1.3678 N.pl3     1 <0>        -0.8860
     30 O1          2.6539    1.9546    2.1211 O.2       1 <0>        -0.5199
     31 O2          3.0377   -1.9312    0.4627 O.2       1 <0>        -0.6131
     32 O3          7.1528   -2.9869   -0.9708 O.2       1 <0>        -0.6576
     33 O4          6.2050   -1.2028   -2.4684 O.2       1 <0>        -0.6482
     34 O5          4.1045    1.1486    0.5584 O.3       1 <0>        -0.6303
     35 S1          6.1736   -2.5573   -1.9508 S.o2      1 <0>         1.5193
     36 H1          7.2850   -6.8223   -3.9781 H         1 <0>         0.1426
     37 H2          6.6098   -6.1550   -6.2597 H         1 <0>         0.1398
     38 H3          7.0838   -5.2026   -2.1011 H         1 <0>         0.1599
     39 H4          6.2924   -4.1994   -7.8171 H         1 <0>         0.0574
     40 H5          4.6108   -4.1891   -7.2649 H         1 <0>         0.0629
     41 H6          3.3521    2.2982   -1.6971 H         1 <0>         0.0614
     42 H7          2.3049    2.4652   -3.0956 H         1 <0>         0.0593
     43 H8         -0.0830    1.0592   -0.5778 H         1 <0>         0.0841
     44 H9          0.3696    2.1440    0.7282 H         1 <0>         0.0679
     45 H10         1.3285    0.1928   -2.6129 H         1 <0>         0.0826
     46 H11         3.0787    0.1346   -2.8358 H         1 <0>         0.0383
     47 H12         4.8006   -0.5031   -6.2022 H         1 <0>         0.0556
     48 H13         3.7533   -1.9175   -6.1053 H         1 <0>         0.0415
     49 H14         1.3638   -0.1412    0.9605 H         1 <0>         0.0851
     50 H15         4.9871   -2.0328   -8.1962 H         1 <0>         0.0639
     51 H16         1.7477    3.4645   -0.6301 H         1 <0>         0.0584
     52 H17         7.7142   -2.3862   -7.3020 H         1 <0>         0.0401
     53 H18         7.0512   -1.2446   -8.4874 H         1 <0>         0.0440
     54 H19         7.1022   -0.8088   -6.7682 H         1 <0>         0.0459
     55 H20         0.4103    4.1714   -2.4154 H         1 <0>         0.0456
     56 H21        -0.1604    2.5322   -2.7831 H         1 <0>         0.0366
     57 H22        -0.7432    3.3698   -1.3317 H         1 <0>         0.0474
     58 H23         3.2051   -3.0234   -4.4407 H         1 <0>         0.0800
     59 H24         3.7751   -4.3904   -3.4776 H         1 <0>         0.0681
     60 H25         2.1309   -3.8309   -1.6847 H         1 <0>         0.0740
     61 H26         1.5011   -2.5046   -2.6534 H         1 <0>         0.0631
     62 H27         2.1863   -5.1610   -5.2224 H         1 <0>         0.0970
     63 H28         0.9460   -4.0714   -4.5808 H         1 <0>         0.0725
     64 H29         3.7902   -1.3903   -2.5956 H         1 <0>         0.0839
     65 H30         5.2418   -1.3645   -4.0211 H         1 <0>         0.4531
     66 H31         0.4035   -7.6739   -1.8636 H         1 <0>         0.4798
     67 H32        -0.7709   -8.2408   -3.0092 H         1 <0>         0.4881
     68 H33         0.0033   -5.8361   -5.6125 H         1 <0>         0.4801
     69 H34        -1.0069   -7.1835   -5.1744 H         1 <0>         0.4806
     70 H35         1.8300   -5.7754   -2.4652 H         1 <0>         0.4689
     71 H36         4.5044   -3.3037   -0.4338 H         1 <0>         0.4505
     72 H37         4.7996    1.6094    1.0749 H         1 <0>         0.4443
@<TRIPOS>BOND
     1    1    2 ar
     2    1    3 ar
     3    2    4 ar
     4    3    6 ar
     5    4    5 ar
     6    4   10 1
     7    5    6 ar
     8    5   24 1
     9    6   35 1
    10    7   15 1
    11    7   30 2
    12    7   34 1
    13    8   23 1
    14    8   25 am
    15    8   31 2
    16    9   26 1
    17    9   27 1
    18    9   28 1
    19   10   16 1
    20   11   13 1
    21   11   17 1
    22   12   15 1
    23   12   17 1
    24   13   25 1
    25   14   16 1
    26   14   24 1
    27   15   25 1
    28   16   18 1
    29   17   19 1
    30   20   21 1
    31   20   22 1
    32   21   23 1
    33   22   28 1
    34   23   29 1
    35   29   35 1
    36   32   35 2
    37   33   35 2
    38    1   36 1
    39    2   37 1
    40    3   38 1
    41   10   39 1
    42   10   40 1
    43   11   41 1
    44   11   42 1
    45   12   43 1
    46   12   44 1
    47   13   45 1
    48   13   46 1
    49   14   47 1
    50   14   48 1
    51   15   49 1
    52   16   50 1
    53   17   51 1
    54   18   52 1
    55   18   53 1
    56   18   54 1
    57   19   55 1
    58   19   56 1
    59   19   57 1
    60   20   58 1
    61   20   59 1
    62   21   60 1
    63   21   61 1
    64   22   62 1
    65   22   63 1
    66   23   64 1
    67   24   65 1
    68   26   66 1
    69   26   67 1
    70   27   68 1
    71   27   69 1
    72   28   70 1
    73   29   71 1
    74   34   72 1
@<TRIPOS>MOLECULE
1dwc_ligand_381
   72    74     0     0     0
SMALL
USER_CHARGES

mmff94s_NoEstat = 84.12
@<TRIPOS>ATOM
      1 C1          3.0864   -6.8132   -1.6121 C.ar      1 <0>        -0.1945
      2 C2          2.0235   -6.9752   -0.7260 C.ar      1 <0>        -0.0294
      3 C3          3.0725   -5.7656   -2.5283 C.ar      1 <0>        -0.0143
      4 C4          0.9399   -6.0855   -0.7488 C.ar      1 <0>        -0.1552
      5 C5          0.9045   -5.0397   -1.6925 C.ar      1 <0>         0.3076
      6 C6          1.9909   -4.8841   -2.5656 C.ar      1 <0>        -0.4908
      7 C7          1.9683   -0.7067    2.3504 C.2       1 <0>         0.5994
      8 C8          2.9466   -1.3973   -0.6457 C.2       1 <0>         0.6462
      9 C9          8.0313    1.1735   -0.6314 C.cat     1 <0>         0.6305
     10 C10        -0.2069   -6.2806    0.2139 C.3       1 <0>        -0.0319
     11 C11         2.1854   -3.9944    1.9686 C.3       1 <0>        -0.0918
     12 C12         3.8131   -2.2556    2.8966 C.3       1 <0>        -0.0841
     13 C13         2.8391   -3.5657    0.6593 C.3       1 <0>         0.0870
     14 C14        -1.3613   -4.3977   -0.9727 C.3       1 <0>         0.2023
     15 C15         3.2228   -1.3678    1.8038 C.3       1 <0>         0.0778
     16 C16        -1.0112   -4.9842    0.3988 C.3       1 <0>        -0.0746
     17 C17         2.9444   -3.4881    3.2059 C.3       1 <0>        -0.0681
     18 C18        -2.2700   -5.2387    1.2234 C.3       1 <0>        -0.0944
     19 C19         3.7998   -4.5942    3.8264 C.3       1 <0>        -0.0918
     20 C20         5.7415   -1.0578   -1.6401 C.3       1 <0>        -0.1192
     21 C21         4.5564   -1.3488   -2.5679 C.3       1 <0>        -0.0916
     22 C22         6.8115   -0.2136   -2.3213 C.3       1 <0>         0.1883
     23 C23         3.4544   -2.1251   -1.8653 C.3       1 <0>         0.1952
     24 N1         -0.1556   -4.1426   -1.7381 N.pl3     1 <0>        -0.7670
     25 N2          2.9741   -2.1051    0.5595 N.am      1 <0>        -0.4509
     26 N3          9.1230    1.3865    0.2039 N.pl3     1 <0>        -0.8477
     27 N4          7.0072    2.1139   -0.6617 N.pl3     1 <0>        -0.8633
     28 N5          7.9432    0.0352   -1.4399 N.pl3     1 <0>        -0.7419
     29 N6          2.2741   -2.2179   -2.7432 N.pl3     1 <0>        -0.8860
     30 O1          1.9215   -0.0131    3.3555 O.2       1 <0>        -0.5199
     31 O2          2.5356   -0.2394   -0.7559 O.2       1 <0>        -0.6131
     32 O3          3.2466   -3.7694   -4.5546 O.2       1 <0>        -0.6576
     33 O4          0.7526   -3.5048   -4.3692 O.2       1 <0>        -0.6482
     34 O5          0.8975   -0.9928    1.5701 O.3       1 <0>        -0.6303
     35 S1          2.0591   -3.5786   -3.7438 S.o2      1 <0>         1.5193
     36 H1          3.9266   -7.5016   -1.5854 H         1 <0>         0.1426
     37 H2          2.0443   -7.7948   -0.0116 H         1 <0>         0.1398
     38 H3          3.8977   -5.6260   -3.2193 H         1 <0>         0.1599
     39 H4         -0.8529   -7.0772   -0.1766 H         1 <0>         0.0574
     40 H5          0.1751   -6.6074    1.1889 H         1 <0>         0.0629
     41 H6          1.1666   -3.5855    1.9944 H         1 <0>         0.0614
     42 H7          2.0785   -5.0851    1.9962 H         1 <0>         0.0593
     43 H8          4.8081   -2.5873    2.5693 H         1 <0>         0.0841
     44 H9          3.9682   -1.6833    3.8202 H         1 <0>         0.0679
     45 H10         3.8460   -3.9906    0.5720 H         1 <0>         0.0826
     46 H11         2.2519   -3.9401   -0.1848 H         1 <0>         0.0383
     47 H12        -2.0084   -5.0849   -1.5319 H         1 <0>         0.0556
     48 H13        -1.9126   -3.4583   -0.8533 H         1 <0>         0.0415
     49 H14         3.9207   -0.5495    1.5893 H         1 <0>         0.0851
     50 H15        -0.3913   -4.2593    0.9436 H         1 <0>         0.0639
     51 H16         2.1980   -3.2111    3.9613 H         1 <0>         0.0584
     52 H17        -2.7070   -4.2936    1.5593 H         1 <0>         0.0401
     53 H18        -3.0178   -5.7721    0.6290 H         1 <0>         0.0440
     54 H19        -2.0361   -5.8426    2.1053 H         1 <0>         0.0459
     55 H20         3.2622   -5.0822    4.6449 H         1 <0>         0.0456
     56 H21         4.0499   -5.3522    3.0782 H         1 <0>         0.0366
     57 H22         4.7318   -4.1818    4.2242 H         1 <0>         0.0474
     58 H23         5.3842   -0.5386   -0.7426 H         1 <0>         0.0800
     59 H24         6.1956   -2.0004   -1.3135 H         1 <0>         0.0681
     60 H25         4.9119   -1.8947   -3.4517 H         1 <0>         0.0740
     61 H26         4.1396   -0.4017   -2.9334 H         1 <0>         0.0631
     62 H27         6.4083    0.7518   -2.6432 H         1 <0>         0.0970
     63 H28         7.1906   -0.7341   -3.2066 H         1 <0>         0.0725
     64 H29         3.7703   -3.1244   -1.5692 H         1 <0>         0.0839
     65 H30        -0.1728   -3.4550   -2.4811 H         1 <0>         0.4531
     66 H31         9.8935    0.7260    0.2604 H         1 <0>         0.4798
     67 H32         9.1788    2.2169    0.7892 H         1 <0>         0.4881
     68 H33         6.1947    1.9894   -1.2608 H         1 <0>         0.4801
     69 H34         7.0444    2.9516   -0.0860 H         1 <0>         0.4806
     70 H35         8.7106   -0.6370   -1.3959 H         1 <0>         0.4689
     71 H36         1.4502   -1.6870   -2.4414 H         1 <0>         0.4505
     72 H37         0.0762   -0.5760    1.9078 H         1 <0>         0.4443
@<TRIPOS>BOND
     1    1    2 ar
     2    1    3 ar
     3    2    4 ar
     4    3    6 ar
     5    4    5 ar
     6    4   10 1
     7    5    6 ar
     8    5   24 1
     9    6   35 1
    10    7   15 1
    11    7   30 2
    12    7   34 1
    13    8   23 1
    14    8   25 am
    15    8   31 2
    16    9   26 1
    17    9   27 1
    18    9   28 1
    19   10   16 1
    20   11   13 1
    21   11   17 1
    22   12   15 1
    23   12   17 1
    24   13   25 1
    25   14   16 1
    26   14   24 1
    27   15   25 1
    28   16   18 1
    29   17   19 1
    30   20   21 1
    31   20   22 1
    32   21   23 1
    33   22   28 1
    34   23   29 1
    35   29   35 1
    36   32   35 2
    37   33   35 2
    38    1   36 1
    39    2   37 1
    40    3   38 1
    41   10   39 1
    42   10   40 1
    43   11   41 1
    44   11   42 1
    45   12   43 1
    46   12   44 1
    47   13   45 1
    48   13   46 1
    49   14   47 1
    50   14   48 1
    51   15   49 1
    52   16   50 1
    53   17   51 1
    54   18   52 1
    55   18   53 1
    56   18   54 1
    57   19   55 1
    58   19   56 1
    59   19   57 1
    60   20   58 1
    61   20   59 1
    62   21   60 1
    63   21   61 1
    64   22   62 1
    65   22   63 1
    66   23   64 1
    67   24   65 1
    68   26   66 1
    69   26   67 1
    70   27   68 1
    71   27   69 1
    72   28   70 1
    73   29   71 1
    74   34   72 1
@<TRIPOS>MOLECULE
1dwc_ligand_382
   72    74     0     0     0
SMALL
USER_CHARGES

mmff94s_NoEstat = 84.16
@<TRIPOS>ATOM
      1 C1          7.4663   -1.7419   -5.0555 C.ar      1 <0>        -0.1945
      2 C2          7.8189   -3.0367   -5.4300 C.ar      1 <0>        -0.0294
      3 C3          6.9552   -1.5029   -3.7834 C.ar      1 <0>        -0.0143
      4 C4          7.6581   -4.1030   -4.5334 C.ar      1 <0>        -0.1552
      5 C5          7.1684   -3.8650   -3.2343 C.ar      1 <0>         0.3076
      6 C6          6.8044   -2.5574   -2.8813 C.ar      1 <0>        -0.4908
      7 C7          3.7685    1.5685    0.3235 C.2       1 <0>         0.5994
      8 C8          2.9466   -1.3973   -0.6457 C.2       1 <0>         0.6462
      9 C9          4.6472   -2.8857   -6.8972 C.cat     1 <0>         0.6305
     10 C10         8.0535   -5.4978   -4.9550 C.3       1 <0>        -0.0319
     11 C11         1.8611    1.7587   -2.3835 C.3       1 <0>        -0.0918
     12 C12         1.3294    1.8958    0.1130 C.3       1 <0>        -0.0841
     13 C13         1.7075    0.2690   -2.0963 C.3       1 <0>         0.0870
     14 C14         7.5357   -6.2183   -2.6043 C.3       1 <0>         0.2023
     15 C15         2.4335    0.8481    0.2329 C.3       1 <0>         0.0778
     16 C16         7.3986   -6.5839   -4.0862 C.3       1 <0>        -0.0746
     17 C17         1.3508    2.6418   -1.2332 C.3       1 <0>        -0.0681
     18 C18         5.9378   -6.8286   -4.4814 C.3       1 <0>        -0.0944
     19 C19        -0.0342    3.2135   -1.5417 C.3       1 <0>        -0.0918
     20 C20         2.8965   -3.7759   -3.7050 C.3       1 <0>        -0.1192
     21 C21         2.4114   -3.0756   -2.4306 C.3       1 <0>        -0.0916
     22 C22         3.3037   -2.7834   -4.7871 C.3       1 <0>         0.1883
     23 C23         3.4544   -2.1251   -1.8653 C.3       1 <0>         0.1952
     24 N1          6.9914   -4.9024   -2.3274 N.pl3     1 <0>        -0.7670
     25 N2          2.3949   -0.1309   -0.8598 N.am      1 <0>        -0.4509
     26 N3          5.0481   -3.5534   -8.0497 N.pl3     1 <0>        -0.8477
     27 N4          5.1622   -1.6213   -6.6324 N.pl3     1 <0>        -0.8633
     28 N5          3.7384   -3.4589   -6.0012 N.pl3     1 <0>        -0.7419
     29 N6          4.6097   -2.8934   -1.3678 N.pl3     1 <0>        -0.8860
     30 O1          4.0589    2.4051    1.1656 O.2       1 <0>        -0.5199
     31 O2          3.0377   -1.9312    0.4627 O.2       1 <0>        -0.6131
     32 O3          6.9529   -2.8526   -0.2994 O.2       1 <0>        -0.6576
     33 O4          5.9925   -0.7285   -1.2427 O.2       1 <0>        -0.6482
     34 O5          4.6017    1.1585   -0.6640 O.3       1 <0>        -0.6303
     35 S1          6.1490   -2.1694   -1.2948 S.o2      1 <0>         1.5193
     36 H1          7.5871   -0.9204   -5.7565 H         1 <0>         0.1426
     37 H2          8.2148   -3.2146   -6.4271 H         1 <0>         0.1398
     38 H3          6.6714   -0.4992   -3.4825 H         1 <0>         0.1599
     39 H4          7.7935   -5.6635   -6.0077 H         1 <0>         0.0574
     40 H5          9.1448   -5.5757   -4.8678 H         1 <0>         0.0629
     41 H6          2.9275    1.9711   -2.5379 H         1 <0>         0.0614
     42 H7          1.3587    2.0144   -3.3237 H         1 <0>         0.0593
     43 H8          0.3614    1.3894    0.2306 H         1 <0>         0.0841
     44 H9          1.3961    2.6253    0.9302 H         1 <0>         0.0679
     45 H10         0.6501    0.0044   -1.9791 H         1 <0>         0.0826
     46 H11         2.0979   -0.3101   -2.9388 H         1 <0>         0.0383
     47 H12         7.0247   -6.9593   -1.9795 H         1 <0>         0.0556
     48 H13         8.5943   -6.2318   -2.3170 H         1 <0>         0.0415
     49 H14         2.3194    0.3128    1.1832 H         1 <0>         0.0851
     50 H15         7.9285   -7.5282   -4.2621 H         1 <0>         0.0639
     51 H16         2.0299    3.4998   -1.1486 H         1 <0>         0.0584
     52 H17         5.6097   -6.0886   -5.2174 H         1 <0>         0.0401
     53 H18         5.8194   -7.8248   -4.9181 H         1 <0>         0.0440
     54 H19         5.2856   -6.7563   -3.6060 H         1 <0>         0.0459
     55 H20         0.0409    4.0371   -2.2580 H         1 <0>         0.0456
     56 H21        -0.6818    2.4425   -1.9698 H         1 <0>         0.0366
     57 H22        -0.5055    3.5921   -0.6298 H         1 <0>         0.0474
     58 H23         3.7485   -4.4232   -3.4647 H         1 <0>         0.0800
     59 H24         2.1002   -4.4168   -4.1006 H         1 <0>         0.0681
     60 H25         2.1309   -3.8309   -1.6847 H         1 <0>         0.0740
     61 H26         1.5011   -2.5046   -2.6534 H         1 <0>         0.0631
     62 H27         4.1172   -2.1361   -4.4443 H         1 <0>         0.0970
     63 H28         2.4527   -2.1471   -5.0499 H         1 <0>         0.0725
     64 H29         3.7902   -1.3903   -2.5956 H         1 <0>         0.0839
     65 H30         6.7085   -4.6707   -1.3830 H         1 <0>         0.4531
     66 H31         4.6998   -4.4794   -8.2830 H         1 <0>         0.4798
     67 H32         5.7100   -3.1295   -8.6957 H         1 <0>         0.4881
     68 H33         4.8906   -1.1052   -5.7991 H         1 <0>         0.4801
     69 H34         5.8236   -1.1788   -7.2661 H         1 <0>         0.4806
     70 H35         3.3778   -4.3882   -6.2228 H         1 <0>         0.4689
     71 H36         4.3912   -3.6637   -0.7270 H         1 <0>         0.4505
     72 H37         5.4695    1.6141   -0.6238 H         1 <0>         0.4443
@<TRIPOS>BOND
     1    1    2 ar
     2    1    3 ar
     3    2    4 ar
     4    3    6 ar
     5    4    5 ar
     6    4   10 1
     7    5    6 ar
     8    5   24 1
     9    6   35 1
    10    7   15 1
    11    7   30 2
    12    7   34 1
    13    8   23 1
    14    8   25 am
    15    8   31 2
    16    9   26 1
    17    9   27 1
    18    9   28 1
    19   10   16 1
    20   11   13 1
    21   11   17 1
    22   12   15 1
    23   12   17 1
    24   13   25 1
    25   14   16 1
    26   14   24 1
    27   15   25 1
    28   16   18 1
    29   17   19 1
    30   20   21 1
    31   20   22 1
    32   21   23 1
    33   22   28 1
    34   23   29 1
    35   29   35 1
    36   32   35 2
    37   33   35 2
    38    1   36 1
    39    2   37 1
    40    3   38 1
    41   10   39 1
    42   10   40 1
    43   11   41 1
    44   11   42 1
    45   12   43 1
    46   12   44 1
    47   13   45 1
    48   13   46 1
    49   14   47 1
    50   14   48 1
    51   15   49 1
    52   16   50 1
    53   17   51 1
    54   18   52 1
    55   18   53 1
    56   18   54 1
    57   19   55 1
    58   19   56 1
    59   19   57 1
    60   20   58 1
    61   20   59 1
    62   21   60 1
    63   21   61 1
    64   22   62 1
    65   22   63 1
    66   23   64 1
    67   24   65 1
    68   26   66 1
    69   26   67 1
    70   27   68 1
    71   27   69 1
    72   28   70 1
    73   29   71 1
    74   34   72 1
@<TRIPOS>MOLECULE
1dwc_ligand_383
   72    74     0     0     0
SMALL
USER_CHARGES

mmff94s_NoEstat = 84.17
@<TRIPOS>ATOM
      1 C1         -2.8852   -6.7028    4.6044 C.ar      1 <0>        -0.1945
      2 C2         -2.7574   -6.8464    5.9843 C.ar      1 <0>        -0.0294
      3 C3         -1.8117   -6.2329    3.8538 C.ar      1 <0>        -0.0143
      4 C4         -1.5535   -6.5163    6.6233 C.ar      1 <0>        -0.1552
      5 C5         -0.4531   -6.0672    5.8671 C.ar      1 <0>         0.3076
      6 C6         -0.6063   -5.9145    4.4813 C.ar      1 <0>        -0.4908
      7 C7          0.0474   -1.6003   -0.0563 C.2       1 <0>         0.5994
      8 C8          0.8654   -1.4427    3.2413 C.2       1 <0>         0.6462
      9 C9         -5.3792    0.5120    4.1450 C.cat     1 <0>         0.6305
     10 C10        -1.4319   -6.6865    8.1186 C.3       1 <0>        -0.0319
     11 C11         2.7802    0.7752    1.0208 C.3       1 <0>        -0.0918
     12 C12         2.5085   -1.4277   -0.1368 C.3       1 <0>        -0.0841
     13 C13         1.5404    0.4804    1.8554 C.3       1 <0>         0.0870
     14 C14         0.9870   -6.0549    7.8660 C.3       1 <0>         0.2023
     15 C15         1.3165   -1.7600    0.7646 C.3       1 <0>         0.0778
     16 C16        -0.2760   -5.8653    8.7129 C.3       1 <0>        -0.0746
     17 C17         2.7020    0.0809   -0.3413 C.3       1 <0>        -0.0681
     18 C18        -0.6451   -4.3852    8.8648 C.3       1 <0>        -0.0944
     19 C19         3.9570    0.3602   -1.1659 C.3       1 <0>        -0.0918
     20 C20        -2.1115   -1.2711    3.3990 C.3       1 <0>        -0.1192
     21 C21        -1.3133   -2.4479    3.9716 C.3       1 <0>        -0.0916
     22 C22        -3.3821   -0.9970    4.1941 C.3       1 <0>         0.1883
     23 C23        -0.0078   -2.6730    3.2260 C.3       1 <0>         0.1952
     24 N1          0.7493   -5.7256    6.4733 N.pl3     1 <0>        -0.7670
     25 N2          1.2915   -0.9578    1.9994 N.am      1 <0>        -0.4509
     26 N3         -6.0873    1.5705    3.5854 N.pl3     1 <0>        -0.8477
     27 N4         -5.9120   -0.1549    5.2429 N.pl3     1 <0>        -0.8633
     28 N5         -4.1449    0.1056    3.6268 N.pl3     1 <0>        -0.7419
     29 N6          0.7961   -3.6905    3.9267 N.pl3     1 <0>        -0.8860
     30 O1         -0.0198   -1.7048   -1.2720 O.2       1 <0>        -0.5199
     31 O2          1.1650   -0.9321    4.3240 O.2       1 <0>        -0.6131
     32 O3          1.9178   -6.0078    3.8522 O.2       1 <0>        -0.6576
     33 O4          0.2309   -5.3989    2.0892 O.2       1 <0>        -0.6482
     34 O5         -1.0094   -1.3214    0.7454 O.3       1 <0>        -0.6303
     35 S1          0.6998   -5.3249    3.4597 S.o2      1 <0>         1.5193
     36 H1         -3.8225   -6.9542    4.1154 H         1 <0>         0.1426
     37 H2         -3.6024   -7.2116    6.5633 H         1 <0>         0.1398
     38 H3         -1.9015   -6.1112    2.7788 H         1 <0>         0.1599
     39 H4         -2.3718   -6.4061    8.6096 H         1 <0>         0.0574
     40 H5         -1.2585   -7.7513    8.3199 H         1 <0>         0.0629
     41 H6          2.8818    1.8586    0.8858 H         1 <0>         0.0614
     42 H7          3.6725    0.4327    1.5603 H         1 <0>         0.0593
     43 H8          3.4165   -1.8382    0.3259 H         1 <0>         0.0841
     44 H9          2.4035   -1.9216   -1.1111 H         1 <0>         0.0679
     45 H10         1.6443    0.9520    2.8381 H         1 <0>         0.0826
     46 H11         0.6509    0.9155    1.3839 H         1 <0>         0.0383
     47 H12         1.8016   -5.4313    8.2507 H         1 <0>         0.0556
     48 H13         1.3225   -7.0973    7.9316 H         1 <0>         0.0415
     49 H14         1.3647   -2.8230    1.0210 H         1 <0>         0.0851
     50 H15        -0.0760   -6.2391    9.7247 H         1 <0>         0.0639
     51 H16         1.8454    0.4816   -0.8972 H         1 <0>         0.0584
     52 H17        -1.6128   -4.1805    8.3973 H         1 <0>         0.0401
     53 H18        -0.7085   -4.1113    9.9222 H         1 <0>         0.0440
     54 H19         0.1084   -3.7505    8.3890 H         1 <0>         0.0459
     55 H20         4.2296   -0.5171   -1.7602 H         1 <0>         0.0456
     56 H21         3.7904    1.1997   -1.8474 H         1 <0>         0.0366
     57 H22         4.7987    0.6086   -0.5125 H         1 <0>         0.0474
     58 H23        -1.4838   -0.3719    3.3933 H         1 <0>         0.0800
     59 H24        -2.3885   -1.4831    2.3599 H         1 <0>         0.0681
     60 H25        -1.9335   -3.3536    3.9489 H         1 <0>         0.0740
     61 H26        -1.0849   -2.2531    5.0271 H         1 <0>         0.0631
     62 H27        -3.1519   -0.7547    5.2365 H         1 <0>         0.0970
     63 H28        -4.0259   -1.8823    4.1866 H         1 <0>         0.0725
     64 H29        -0.1638   -2.9774    2.1921 H         1 <0>         0.0839
     65 H30         1.5327   -5.4807    5.8802 H         1 <0>         0.4531
     66 H31        -5.7362    2.0880    2.7841 H         1 <0>         0.4798
     67 H32        -6.9840    1.8599    3.9689 H         1 <0>         0.4881
     68 H33        -5.4209   -0.9328    5.6766 H         1 <0>         0.4801
     69 H34        -6.8078    0.1174    5.6406 H         1 <0>         0.4806
     70 H35        -3.7797    0.6144    2.8203 H         1 <0>         0.4689
     71 H36         1.6533   -3.3509    4.3757 H         1 <0>         0.4505
     72 H37        -1.8390   -1.2127    0.2333 H         1 <0>         0.4443
@<TRIPOS>BOND
     1    1    2 ar
     2    1    3 ar
     3    2    4 ar
     4    3    6 ar
     5    4    5 ar
     6    4   10 1
     7    5    6 ar
     8    5   24 1
     9    6   35 1
    10    7   15 1
    11    7   30 2
    12    7   34 1
    13    8   23 1
    14    8   25 am
    15    8   31 2
    16    9   26 1
    17    9   27 1
    18    9   28 1
    19   10   16 1
    20   11   13 1
    21   11   17 1
    22   12   15 1
    23   12   17 1
    24   13   25 1
    25   14   16 1
    26   14   24 1
    27   15   25 1
    28   16   18 1
    29   17   19 1
    30   20   21 1
    31   20   22 1
    32   21   23 1
    33   22   28 1
    34   23   29 1
    35   29   35 1
    36   32   35 2
    37   33   35 2
    38    1   36 1
    39    2   37 1
    40    3   38 1
    41   10   39 1
    42   10   40 1
    43   11   41 1
    44   11   42 1
    45   12   43 1
    46   12   44 1
    47   13   45 1
    48   13   46 1
    49   14   47 1
    50   14   48 1
    51   15   49 1
    52   16   50 1
    53   17   51 1
    54   18   52 1
    55   18   53 1
    56   18   54 1
    57   19   55 1
    58   19   56 1
    59   19   57 1
    60   20   58 1
    61   20   59 1
    62   21   60 1
    63   21   61 1
    64   22   62 1
    65   22   63 1
    66   23   64 1
    67   24   65 1
    68   26   66 1
    69   26   67 1
    70   27   68 1
    71   27   69 1
    72   28   70 1
    73   29   71 1
    74   34   72 1
@<TRIPOS>MOLECULE
1dwc_ligand_384
   72    74     0     0     0
SMALL
USER_CHARGES

mmff94s_NoEstat = 84.18
@<TRIPOS>ATOM
      1 C1         -1.9965   -5.9212    5.9958 C.ar      1 <0>        -0.1945
      2 C2         -2.1862   -5.2163    7.1826 C.ar      1 <0>        -0.0294
      3 C3         -2.1655   -5.2788    4.7728 C.ar      1 <0>        -0.0143
      4 C4         -2.5430   -3.8606    7.1524 C.ar      1 <0>        -0.1552
      5 C5         -2.7443   -3.2106    5.9185 C.ar      1 <0>         0.3076
      6 C6         -2.5336   -3.9330    4.7351 C.ar      1 <0>        -0.4908
      7 C7          0.7009   -2.1464    6.5648 C.2       1 <0>         0.5994
      8 C8          0.8654   -1.4427    3.2413 C.2       1 <0>         0.6462
      9 C9          4.0141   -6.1014   -0.2251 C.cat     1 <0>         0.6305
     10 C10        -2.7517   -3.1143    8.4484 C.3       1 <0>        -0.0319
     11 C11         2.1349    1.1778    5.4857 C.3       1 <0>        -0.0918
     12 C12         0.0512    0.2342    6.5026 C.3       1 <0>        -0.0841
     13 C13         2.3350   -0.1191    4.7120 C.3       1 <0>         0.0870
     14 C14        -3.4952   -1.1625    7.0613 C.3       1 <0>         0.2023
     15 C15         0.2061   -1.0325    5.6569 C.3       1 <0>         0.0778
     16 C16        -2.6278   -1.5957    8.2477 C.3       1 <0>        -0.0746
     17 C17         1.3898    0.9236    6.7987 C.3       1 <0>        -0.0681
     18 C18        -3.0221   -0.8459    9.5173 C.3       1 <0>        -0.0944
     19 C19         1.1710    2.2294    7.5603 C.3       1 <0>        -0.0918
     20 C20         1.7689   -4.0083    2.0091 C.3       1 <0>        -0.1192
     21 C21         0.3004   -3.5693    2.0376 C.3       1 <0>        -0.0916
     22 C22         2.0958   -4.8429    0.7769 C.3       1 <0>         0.1883
     23 C23        -0.0078   -2.6730    3.2260 C.3       1 <0>         0.1952
     24 N1         -3.0973   -1.8681    5.8578 N.pl3     1 <0>        -0.7670
     25 N2          1.0754   -0.8353    4.4846 N.am      1 <0>        -0.4509
     26 N3          5.3470   -6.4988   -0.2068 N.pl3     1 <0>        -0.8477
     27 N4          3.1913   -6.5359   -1.2586 N.pl3     1 <0>        -0.8633
     28 N5          3.4859   -5.2755    0.7729 N.pl3     1 <0>        -0.7419
     29 N6         -1.3760   -2.1385    3.1042 N.pl3     1 <0>        -0.8860
     30 O1          0.1485   -2.5125    7.5915 O.2       1 <0>        -0.5199
     31 O2          1.3411   -1.0305    2.1799 O.2       1 <0>        -0.6131
     32 O3         -2.5366   -4.2300    2.1492 O.2       1 <0>        -0.6576
     33 O4         -3.9323   -2.4104    3.1814 O.2       1 <0>        -0.6482
     34 O5          1.8482   -2.6833    6.0823 O.3       1 <0>        -0.6303
     35 S1         -2.7118   -3.1932    3.1483 S.o2      1 <0>         1.5193
     36 H1         -1.7136   -6.9698    6.0253 H         1 <0>         0.1426
     37 H2         -2.0492   -5.7255    8.1337 H         1 <0>         0.1398
     38 H3         -2.0145   -5.8162    3.8419 H         1 <0>         0.1599
     39 H4         -3.7469   -3.3674    8.8354 H         1 <0>         0.0574
     40 H5         -2.0117   -3.4391    9.1901 H         1 <0>         0.0629
     41 H6          3.1095    1.6373    5.6888 H         1 <0>         0.0614
     42 H7          1.5671    1.8861    4.8689 H         1 <0>         0.0593
     43 H8         -0.5924    0.9376    5.9566 H         1 <0>         0.0841
     44 H9         -0.4632    0.0070    7.4450 H         1 <0>         0.0679
     45 H10         2.8294    0.0994    3.7598 H         1 <0>         0.0826
     46 H11         2.9949   -0.7966    5.2674 H         1 <0>         0.0383
     47 H12        -4.5547   -1.3611    7.2657 H         1 <0>         0.0556
     48 H13        -3.3943   -0.0847    6.8920 H         1 <0>         0.0415
     49 H14        -0.7880   -1.3485    5.3249 H         1 <0>         0.0851
     50 H15        -1.5799   -1.3538    8.0242 H         1 <0>         0.0639
     51 H16         1.9994    0.2688    7.4336 H         1 <0>         0.0584
     52 H17        -2.7058    0.1999    9.4599 H         1 <0>         0.0401
     53 H18        -4.1069   -0.8706    9.6572 H         1 <0>         0.0440
     54 H19        -2.5511   -1.3005   10.3940 H         1 <0>         0.0459
     55 H20         0.1089    2.3722    7.7811 H         1 <0>         0.0456
     56 H21         1.7213    2.2199    8.5059 H         1 <0>         0.0366
     57 H22         1.5173    3.0821    6.9686 H         1 <0>         0.0474
     58 H23         2.4156   -3.1229    2.0318 H         1 <0>         0.0800
     59 H24         1.9949   -4.6013    2.9028 H         1 <0>         0.0681
     60 H25        -0.3448   -4.4577    2.0448 H         1 <0>         0.0740
     61 H26         0.0666   -3.0218    1.1158 H         1 <0>         0.0631
     62 H27         1.9087   -4.2801   -0.1431 H         1 <0>         0.0970
     63 H28         1.4704   -5.7411    0.7573 H         1 <0>         0.0725
     64 H29         0.1003   -3.1895    4.1787 H         1 <0>         0.0839
     65 H30        -3.3042   -1.4652    4.9522 H         1 <0>         0.4531
     66 H31         5.9857   -6.2045    0.5272 H         1 <0>         0.4798
     67 H32         5.7233   -7.0992   -0.9370 H         1 <0>         0.4881
     68 H33         2.2121   -6.2643   -1.3027 H         1 <0>         0.4801
     69 H34         3.5471   -7.1379   -1.9973 H         1 <0>         0.4806
     70 H35         4.1145   -4.9729    1.5185 H         1 <0>         0.4689
     71 H36        -1.5021   -1.1633    3.3956 H         1 <0>         0.4505
     72 H37         2.1852   -3.4039    6.6563 H         1 <0>         0.4443
@<TRIPOS>BOND
     1    1    2 ar
     2    1    3 ar
     3    2    4 ar
     4    3    6 ar
     5    4    5 ar
     6    4   10 1
     7    5    6 ar
     8    5   24 1
     9    6   35 1
    10    7   15 1
    11    7   30 2
    12    7   34 1
    13    8   23 1
    14    8   25 am
    15    8   31 2
    16    9   26 1
    17    9   27 1
    18    9   28 1
    19   10   16 1
    20   11   13 1
    21   11   17 1
    22   12   15 1
    23   12   17 1
    24   13   25 1
    25   14   16 1
    26   14   24 1
    27   15   25 1
    28   16   18 1
    29   17   19 1
    30   20   21 1
    31   20   22 1
    32   21   23 1
    33   22   28 1
    34   23   29 1
    35   29   35 1
    36   32   35 2
    37   33   35 2
    38    1   36 1
    39    2   37 1
    40    3   38 1
    41   10   39 1
    42   10   40 1
    43   11   41 1
    44   11   42 1
    45   12   43 1
    46   12   44 1
    47   13   45 1
    48   13   46 1
    49   14   47 1
    50   14   48 1
    51   15   49 1
    52   16   50 1
    53   17   51 1
    54   18   52 1
    55   18   53 1
    56   18   54 1
    57   19   55 1
    58   19   56 1
    59   19   57 1
    60   20   58 1
    61   20   59 1
    62   21   60 1
    63   21   61 1
    64   22   62 1
    65   22   63 1
    66   23   64 1
    67   24   65 1
    68   26   66 1
    69   26   67 1
    70   27   68 1
    71   27   69 1
    72   28   70 1
    73   29   71 1
    74   34   72 1
@<TRIPOS>MOLECULE
1dwc_ligand_385
   72    74     0     0     0
SMALL
USER_CHARGES

mmff94s_NoEstat = 84.18
@<TRIPOS>ATOM
      1 C1         -0.5523    1.6744    5.9041 C.ar      1 <0>        -0.1945
      2 C2         -0.9694    2.6552    5.0066 C.ar      1 <0>        -0.0294
      3 C3         -0.9569    0.3546    5.7269 C.ar      1 <0>        -0.0143
      4 C4         -1.7923    2.3195    3.9220 C.ar      1 <0>        -0.1552
      5 C5         -2.2299    0.9909    3.7521 C.ar      1 <0>         0.3076
      6 C6         -1.7869    0.0155    4.6571 C.ar      1 <0>        -0.4908
      7 C7          2.5084    0.3236    5.6389 C.2       1 <0>         0.5994
      8 C8          0.8654   -1.4427    3.2413 C.2       1 <0>         0.6462
      9 C9         -0.8941   -7.9715   -0.0876 C.cat     1 <0>         0.6305
     10 C10        -2.2407    3.3967    2.9635 C.3       1 <0>        -0.0319
     11 C11         3.7918   -3.1079    4.7178 C.3       1 <0>        -0.0918
     12 C12         4.3679   -0.6960    4.3756 C.3       1 <0>        -0.0841
     13 C13         2.3136   -2.7413    4.7550 C.3       1 <0>         0.0870
     14 C14        -3.6561    1.6489    1.8554 C.3       1 <0>         0.2023
     15 C15         2.8792   -0.3425    4.3241 C.3       1 <0>         0.0778
     16 C16        -2.6763    2.8021    1.6150 C.3       1 <0>        -0.0746
     17 C17         4.6572   -1.9474    5.2154 C.3       1 <0>        -0.0681
     18 C18        -3.2993    3.8738    0.7246 C.3       1 <0>        -0.0944
     19 C19         6.1396   -2.3107    5.1549 C.3       1 <0>        -0.0918
     20 C20        -0.5404   -4.8511    2.0458 C.3       1 <0>        -0.1192
     21 C21         0.3004   -3.5693    2.0376 C.3       1 <0>        -0.0916
     22 C22        -0.1768   -5.7847    0.8978 C.3       1 <0>         0.1883
     23 C23        -0.0078   -2.6730    3.2260 C.3       1 <0>         0.1952
     24 N1         -3.0449    0.6290    2.6865 N.pl3     1 <0>        -0.7670
     25 N2          2.0252   -1.5038    4.0223 N.am      1 <0>        -0.4509
     26 N3         -1.6898   -9.1122   -0.0609 N.pl3     1 <0>        -0.8477
     27 N4          0.0239   -7.8094   -1.1196 N.pl3     1 <0>        -0.8633
     28 N5         -0.9984   -6.9865    0.9003 N.pl3     1 <0>        -0.7419
     29 N6         -1.3760   -2.1385    3.1042 N.pl3     1 <0>        -0.8860
     30 O1          1.6182   -0.0497    6.3883 O.2       1 <0>        -0.5199
     31 O2          0.5240   -0.4555    2.5844 O.2       1 <0>        -0.6131
     32 O3         -1.7140   -2.3916    5.6449 O.2       1 <0>        -0.6576
     33 O4         -3.6601   -1.7094    4.2056 O.2       1 <0>        -0.6482
     34 O5          3.3013    1.3981    5.8715 O.3       1 <0>        -0.6303
     35 S1         -2.2397   -1.6774    4.4970 S.o2      1 <0>         1.5193
     36 H1          0.0908    1.9391    6.7389 H         1 <0>         0.1426
     37 H2         -0.6459    3.6833    5.1512 H         1 <0>         0.1398
     38 H3         -0.6333   -0.4189    6.4161 H         1 <0>         0.1599
     39 H4         -3.0724    3.9441    3.4249 H         1 <0>         0.0574
     40 H5         -1.4243    4.1094    2.7937 H         1 <0>         0.0629
     41 H6          3.9641   -3.9977    5.3349 H         1 <0>         0.0614
     42 H7          4.0768   -3.3683    3.6904 H         1 <0>         0.0593
     43 H8          4.7163   -0.8743    3.3490 H         1 <0>         0.0841
     44 H9          4.9510    0.1500    4.7611 H         1 <0>         0.0679
     45 H10         1.7240   -3.5716    4.3527 H         1 <0>         0.0826
     46 H11         1.9849   -2.5868    5.7898 H         1 <0>         0.0383
     47 H12        -4.5696    2.0142    2.3409 H         1 <0>         0.0556
     48 H13        -3.9536    1.1996    0.9014 H         1 <0>         0.0415
     49 H14         2.7341    0.4259    3.5582 H         1 <0>         0.0851
     50 H15        -1.7894    2.4087    1.1001 H         1 <0>         0.0639
     51 H16         4.4098   -1.7422    6.2643 H         1 <0>         0.0584
     52 H17        -3.3831    3.5161   -0.3060 H         1 <0>         0.0401
     53 H18        -4.3001    4.1356    1.0809 H         1 <0>         0.0440
     54 H19        -2.6852    4.7793    0.7260 H         1 <0>         0.0459
     55 H20         6.6929   -1.5714    4.5681 H         1 <0>         0.0456
     56 H21         6.5688   -2.3436    6.1607 H         1 <0>         0.0366
     57 H22         6.2762   -3.2916    4.6898 H         1 <0>         0.0474
     58 H23        -0.4002   -5.3741    2.9994 H         1 <0>         0.0800
     59 H24        -1.6035   -4.5964    1.9658 H         1 <0>         0.0681
     60 H25         0.1357   -3.0322    1.0943 H         1 <0>         0.0740
     61 H26         1.3654   -3.8328    2.0643 H         1 <0>         0.0631
     62 H27         0.8739   -6.0869    0.9513 H         1 <0>         0.0970
     63 H28        -0.3350   -5.2785   -0.0598 H         1 <0>         0.0725
     64 H29         0.1003   -3.1895    4.1787 H         1 <0>         0.0839
     65 H30        -3.3945   -0.3205    2.6487 H         1 <0>         0.4531
     66 H31        -2.3726   -9.2741    0.6745 H         1 <0>         0.4798
     67 H32        -1.6070   -9.8240   -0.7830 H         1 <0>         0.4881
     68 H33         0.6213   -6.9877   -1.1696 H         1 <0>         0.4801
     69 H34         0.1212   -8.5082   -1.8524 H         1 <0>         0.4806
     70 H35        -1.6814   -7.1337    1.6450 H         1 <0>         0.4689
     71 H36        -1.6042   -1.6955    2.2078 H         1 <0>         0.4505
     72 H37         3.0762    1.8437    6.7159 H         1 <0>         0.4443
@<TRIPOS>BOND
     1    1    2 ar
     2    1    3 ar
     3    2    4 ar
     4    3    6 ar
     5    4    5 ar
     6    4   10 1
     7    5    6 ar
     8    5   24 1
     9    6   35 1
    10    7   15 1
    11    7   30 2
    12    7   34 1
    13    8   23 1
    14    8   25 am
    15    8   31 2
    16    9   26 1
    17    9   27 1
    18    9   28 1
    19   10   16 1
    20   11   13 1
    21   11   17 1
    22   12   15 1
    23   12   17 1
    24   13   25 1
    25   14   16 1
    26   14   24 1
    27   15   25 1
    28   16   18 1
    29   17   19 1
    30   20   21 1
    31   20   22 1
    32   21   23 1
    33   22   28 1
    34   23   29 1
    35   29   35 1
    36   32   35 2
    37   33   35 2
    38    1   36 1
    39    2   37 1
    40    3   38 1
    41   10   39 1
    42   10   40 1
    43   11   41 1
    44   11   42 1
    45   12   43 1
    46   12   44 1
    47   13   45 1
    48   13   46 1
    49   14   47 1
    50   14   48 1
    51   15   49 1
    52   16   50 1
    53   17   51 1
    54   18   52 1
    55   18   53 1
    56   18   54 1
    57   19   55 1
    58   19   56 1
    59   19   57 1
    60   20   58 1
    61   20   59 1
    62   21   60 1
    63   21   61 1
    64   22   62 1
    65   22   63 1
    66   23   64 1
    67   24   65 1
    68   26   66 1
    69   26   67 1
    70   27   68 1
    71   27   69 1
    72   28   70 1
    73   29   71 1
    74   34   72 1
@<TRIPOS>MOLECULE
1dwc_ligand_386
   72    74     0     0     0
SMALL
USER_CHARGES

mmff94s_NoEstat = 84.24
@<TRIPOS>ATOM
      1 C1          4.4928   -6.3998   -3.5466 C.ar      1 <0>        -0.1945
      2 C2          3.6126   -7.2143   -2.8372 C.ar      1 <0>        -0.0294
      3 C3          4.0872   -5.1340   -3.9593 C.ar      1 <0>        -0.0143
      4 C4          2.3199   -6.7643   -2.5325 C.ar      1 <0>        -0.1552
      5 C5          1.8919   -5.4957   -2.9718 C.ar      1 <0>         0.3076
      6 C6          2.7974   -4.6848   -3.6711 C.ar      1 <0>        -0.4908
      7 C7          0.5484   -0.8946    1.4535 C.2       1 <0>         0.5994
      8 C8          2.9466   -1.3973   -0.6457 C.2       1 <0>         0.6462
      9 C9          8.2869   -3.0539    0.3474 C.cat     1 <0>         0.6305
     10 C10         1.3769   -7.6633   -1.7693 C.3       1 <0>        -0.0319
     11 C11         1.0071   -4.1523    1.0299 C.3       1 <0>        -0.0918
     12 C12         1.8830   -2.5004    2.7729 C.3       1 <0>        -0.0841
     13 C13         2.2320   -3.6460    0.2757 C.3       1 <0>         0.0870
     14 C14        -0.3833   -5.9141   -2.1273 C.3       1 <0>         0.2023
     15 C15         1.9200   -1.5343    1.5913 C.3       1 <0>         0.0778
     16 C16         0.2516   -6.8579   -1.1008 C.3       1 <0>        -0.0746
     17 C17         1.0079   -3.7392    2.5107 C.3       1 <0>        -0.0681
     18 C18        -0.7940   -7.7879   -0.4914 C.3       1 <0>        -0.0944
     19 C19         1.4463   -4.8953    3.4115 C.3       1 <0>        -0.0918
     20 C20         5.7415   -1.0578   -1.6401 C.3       1 <0>        -0.1192
     21 C21         4.5564   -1.3488   -2.5679 C.3       1 <0>        -0.0916
     22 C22         6.4279   -2.3331   -1.1666 C.3       1 <0>         0.1883
     23 C23         3.4544   -2.1251   -1.8653 C.3       1 <0>         0.1952
     24 N1          0.6173   -5.0232   -2.6840 N.pl3     1 <0>        -0.7670
     25 N2          2.3654   -2.1840    0.3531 N.am      1 <0>        -0.4509
     26 N3          9.3421   -2.7528    1.2022 N.pl3     1 <0>        -0.8477
     27 N4          7.9744   -4.3862    0.0994 N.pl3     1 <0>        -0.8633
     28 N5          7.5354   -2.0461   -0.2663 N.pl3     1 <0>        -0.7419
     29 N6          2.2741   -2.2179   -2.7432 N.pl3     1 <0>        -0.8860
     30 O1         -0.0257   -0.2688    2.3322 O.2       1 <0>        -0.5199
     31 O2          3.0580   -0.1705   -0.5795 O.2       1 <0>        -0.6131
     32 O3          3.4786   -2.5500   -4.9955 O.2       1 <0>        -0.6576
     33 O4          1.0452   -3.1536   -4.7996 O.2       1 <0>        -0.6482
     34 O5          0.0400   -1.1141    0.2163 O.3       1 <0>        -0.6303
     35 S1          2.3700   -3.0669   -4.2159 S.o2      1 <0>         1.5193
     36 H1          5.4954   -6.7511   -3.7740 H         1 <0>         0.1426
     37 H2          3.9390   -8.2006   -2.5161 H         1 <0>         0.1398
     38 H3          4.7662   -4.4885   -4.5072 H         1 <0>         0.1599
     39 H4          0.9565   -8.3959   -2.4699 H         1 <0>         0.0574
     40 H5          1.9286   -8.2156   -0.9986 H         1 <0>         0.0629
     41 H6          0.1116   -3.7326    0.5525 H         1 <0>         0.0614
     42 H7          0.9264   -5.2409    0.9288 H         1 <0>         0.0593
     43 H8          2.9117   -2.8226    2.9853 H         1 <0>         0.0841
     44 H9          1.5267   -1.9929    3.6785 H         1 <0>         0.0679
     45 H10         3.1493   -4.0774    0.6933 H         1 <0>         0.0826
     46 H11         2.1726   -3.9558   -0.7722 H         1 <0>         0.0383
     47 H12        -0.8526   -6.4855   -2.9377 H         1 <0>         0.0556
     48 H13        -1.1701   -5.3152   -1.6553 H         1 <0>         0.0415
     49 H14         2.6095   -0.7128    1.8202 H         1 <0>         0.0851
     50 H15         0.6827   -6.2563   -0.2891 H         1 <0>         0.0639
     51 H16        -0.0273   -3.5034    2.7887 H         1 <0>         0.0584
     52 H17        -1.4531   -7.2348    0.1844 H         1 <0>         0.0401
     53 H18        -1.4073   -8.2428   -1.2750 H         1 <0>         0.0440
     54 H19        -0.3115   -8.5886    0.0770 H         1 <0>         0.0459
     55 H20         0.5753   -5.4296    3.8024 H         1 <0>         0.0456
     56 H21         2.0638   -5.6051    2.8530 H         1 <0>         0.0366
     57 H22         2.0303   -4.5225    4.2583 H         1 <0>         0.0474
     58 H23         6.4686   -0.4251   -2.1633 H         1 <0>         0.0800
     59 H24         5.3954   -0.5006   -0.7619 H         1 <0>         0.0681
     60 H25         4.9119   -1.8947   -3.4517 H         1 <0>         0.0740
     61 H26         4.1396   -0.4017   -2.9334 H         1 <0>         0.0631
     62 H27         6.8136   -2.9120   -2.0118 H         1 <0>         0.0970
     63 H28         5.7150   -2.9614   -0.6232 H         1 <0>         0.0725
     64 H29         3.7703   -3.1244   -1.5692 H         1 <0>         0.0839
     65 H30         0.3298   -4.1388   -3.0846 H         1 <0>         0.4531
     66 H31         9.6078   -1.7941    1.4112 H         1 <0>         0.4798
     67 H32         9.8840   -3.4919    1.6440 H         1 <0>         0.4881
     68 H33         7.2094   -4.6418   -0.5202 H         1 <0>         0.4801
     69 H34         8.5024   -5.1402    0.5323 H         1 <0>         0.4806
     70 H35         7.7887   -1.0776   -0.0648 H         1 <0>         0.4689
     71 H36         1.3641   -2.1281   -2.2790 H         1 <0>         0.4505
     72 H37        -0.8473   -0.7100    0.1079 H         1 <0>         0.4443
@<TRIPOS>BOND
     1    1    2 ar
     2    1    3 ar
     3    2    4 ar
     4    3    6 ar
     5    4    5 ar
     6    4   10 1
     7    5    6 ar
     8    5   24 1
     9    6   35 1
    10    7   15 1
    11    7   30 2
    12    7   34 1
    13    8   23 1
    14    8   25 am
    15    8   31 2
    16    9   26 1
    17    9   27 1
    18    9   28 1
    19   10   16 1
    20   11   13 1
    21   11   17 1
    22   12   15 1
    23   12   17 1
    24   13   25 1
    25   14   16 1
    26   14   24 1
    27   15   25 1
    28   16   18 1
    29   17   19 1
    30   20   21 1
    31   20   22 1
    32   21   23 1
    33   22   28 1
    34   23   29 1
    35   29   35 1
    36   32   35 2
    37   33   35 2
    38    1   36 1
    39    2   37 1
    40    3   38 1
    41   10   39 1
    42   10   40 1
    43   11   41 1
    44   11   42 1
    45   12   43 1
    46   12   44 1
    47   13   45 1
    48   13   46 1
    49   14   47 1
    50   14   48 1
    51   15   49 1
    52   16   50 1
    53   17   51 1
    54   18   52 1
    55   18   53 1
    56   18   54 1
    57   19   55 1
    58   19   56 1
    59   19   57 1
    60   20   58 1
    61   20   59 1
    62   21   60 1
    63   21   61 1
    64   22   62 1
    65   22   63 1
    66   23   64 1
    67   24   65 1
    68   26   66 1
    69   26   67 1
    70   27   68 1
    71   27   69 1
    72   28   70 1
    73   29   71 1
    74   34   72 1
@<TRIPOS>MOLECULE
1dwc_ligand_387
   72    74     0     0     0
SMALL
USER_CHARGES

mmff94s_NoEstat = 84.26
@<TRIPOS>ATOM
      1 C1         -1.2513   -4.6123    7.0409 C.ar      1 <0>        -0.1945
      2 C2         -2.2943   -5.5269    6.9103 C.ar      1 <0>        -0.0294
      3 C3         -1.2571   -3.4413    6.2888 C.ar      1 <0>        -0.0143
      4 C4         -3.3535   -5.2725    6.0273 C.ar      1 <0>        -0.1552
      5 C5         -3.3523   -4.1031    5.2411 C.ar      1 <0>         0.3076
      6 C6         -2.3015   -3.1877    5.3982 C.ar      1 <0>        -0.4908
      7 C7          2.9525   -3.7210    4.6633 C.2       1 <0>         0.5994
      8 C8          0.8654   -1.4427    3.2413 C.2       1 <0>         0.6462
      9 C9          0.2237   -3.7376   -2.9912 C.cat     1 <0>         0.6305
     10 C10        -4.4718   -6.2782    5.8932 C.3       1 <0>        -0.0319
     11 C11         3.8997   -0.0663    4.7953 C.3       1 <0>        -0.0918
     12 C12         3.0155   -1.8674    6.2922 C.3       1 <0>        -0.0841
     13 C13         3.1900   -0.7124    3.6122 C.3       1 <0>         0.0870
     14 C14        -5.3794   -4.8387    4.0520 C.3       1 <0>         0.2023
     15 C15         2.2314   -2.4635    5.1202 C.3       1 <0>         0.0778
     16 C16        -5.7397   -5.6335    5.3114 C.3       1 <0>        -0.0746
     17 C17         4.2756   -1.1130    5.8473 C.3       1 <0>        -0.0681
     18 C18        -6.7970   -6.6915    5.0078 C.3       1 <0>        -0.0944
     19 C19         4.9663   -0.4582    7.0420 C.3       1 <0>        -0.0918
     20 C20         0.0249   -2.8727    0.7002 C.3       1 <0>        -0.1192
     21 C21         0.3004   -3.5693    2.0376 C.3       1 <0>        -0.0916
     22 C22         0.2602   -3.7963   -0.4886 C.3       1 <0>         0.1883
     23 C23        -0.0078   -2.6730    3.2260 C.3       1 <0>         0.1952
     24 N1         -4.3886   -3.8243    4.3586 N.pl3     1 <0>        -0.7670
     25 N2          2.0252   -1.5038    4.0223 N.am      1 <0>        -0.4509
     26 N3         -0.0152   -3.0669   -4.1862 N.pl3     1 <0>        -0.8477
     27 N4          0.6744   -5.0526   -3.0302 N.pl3     1 <0>        -0.8633
     28 N5          0.0202   -3.1173   -1.7538 N.pl3     1 <0>        -0.7419
     29 N6         -1.3760   -2.1385    3.1042 N.pl3     1 <0>        -0.8860
     30 O1          3.7741   -3.7699    3.7601 O.2       1 <0>        -0.5199
     31 O2          0.5240   -0.4555    2.5844 O.2       1 <0>        -0.6131
     32 O3         -3.5960   -1.3232    4.1243 O.2       1 <0>        -0.6576
     33 O4         -1.4314   -0.7555    5.2719 O.2       1 <0>        -0.6482
     34 O5          2.5581   -4.7916    5.3952 O.3       1 <0>        -0.6303
     35 S1         -2.2397   -1.6774    4.4970 S.o2      1 <0>         1.5193
     36 H1         -0.4366   -4.8116    7.7316 H         1 <0>         0.1426
     37 H2         -2.2830   -6.4379    7.5040 H         1 <0>         0.1398
     38 H3         -0.4531   -2.7188    6.3867 H         1 <0>         0.1599
     39 H4         -4.1265   -7.0929    5.2439 H         1 <0>         0.0574
     40 H5         -4.7068   -6.7090    6.8742 H         1 <0>         0.0629
     41 H6          4.7987    0.4538    4.4437 H         1 <0>         0.0614
     42 H7          3.2442    0.6909    5.2441 H         1 <0>         0.0593
     43 H8          2.3586   -1.1679    6.8273 H         1 <0>         0.0841
     44 H9          3.2888   -2.6509    7.0104 H         1 <0>         0.0679
     45 H10         2.8945    0.0639    2.8988 H         1 <0>         0.0826
     46 H11         3.8704   -1.3909    3.0835 H         1 <0>         0.0383
     47 H12        -4.9880   -5.5059    3.2740 H         1 <0>         0.0556
     48 H13        -6.2720   -4.3523    3.6429 H         1 <0>         0.0415
     49 H14         1.2607   -2.8048    5.4936 H         1 <0>         0.0851
     50 H15        -6.1574   -4.9424    6.0561 H         1 <0>         0.0639
     51 H16         4.9839   -1.8245    5.4052 H         1 <0>         0.0584
     52 H17        -7.7694   -6.2229    4.8294 H         1 <0>         0.0401
     53 H18        -6.5224   -7.2651    4.1175 H         1 <0>         0.0440
     54 H19        -6.8980   -7.3858    5.8473 H         1 <0>         0.0459
     55 H20         4.4464   -0.7091    7.9715 H         1 <0>         0.0456
     56 H21         6.0020   -0.8015    7.1231 H         1 <0>         0.0366
     57 H22         4.9717    0.6305    6.9335 H         1 <0>         0.0474
     58 H23        -1.0105   -2.5120    0.6824 H         1 <0>         0.0800
     59 H24         0.6776   -1.9980    0.5976 H         1 <0>         0.0681
     60 H25         1.3460   -3.9033    2.0652 H         1 <0>         0.0740
     61 H26        -0.3175   -4.4733    2.1109 H         1 <0>         0.0631
     62 H27        -0.3909   -4.6751   -0.4416 H         1 <0>         0.0970
     63 H28         1.2981   -4.1440   -0.4920 H         1 <0>         0.0725
     64 H29         0.1003   -3.1895    4.1787 H         1 <0>         0.0839
     65 H30        -4.3065   -3.0109    3.7612 H         1 <0>         0.4531
     66 H31        -0.3470   -2.1063   -4.2064 H         1 <0>         0.4798
     67 H32         0.1347   -3.5257   -5.0818 H         1 <0>         0.4881
     68 H33         0.8589   -5.5723   -2.1756 H         1 <0>         0.4801
     69 H34         0.8324   -5.5290   -3.9149 H         1 <0>         0.4806
     70 H35        -0.3110   -2.1514   -1.7574 H         1 <0>         0.4689
     71 H36        -1.6042   -1.6955    2.2078 H         1 <0>         0.4505
     72 H37         3.0115   -5.6147    5.1139 H         1 <0>         0.4443
@<TRIPOS>BOND
     1    1    2 ar
     2    1    3 ar
     3    2    4 ar
     4    3    6 ar
     5    4    5 ar
     6    4   10 1
     7    5    6 ar
     8    5   24 1
     9    6   35 1
    10    7   15 1
    11    7   30 2
    12    7   34 1
    13    8   23 1
    14    8   25 am
    15    8   31 2
    16    9   26 1
    17    9   27 1
    18    9   28 1
    19   10   16 1
    20   11   13 1
    21   11   17 1
    22   12   15 1
    23   12   17 1
    24   13   25 1
    25   14   16 1
    26   14   24 1
    27   15   25 1
    28   16   18 1
    29   17   19 1
    30   20   21 1
    31   20   22 1
    32   21   23 1
    33   22   28 1
    34   23   29 1
    35   29   35 1
    36   32   35 2
    37   33   35 2
    38    1   36 1
    39    2   37 1
    40    3   38 1
    41   10   39 1
    42   10   40 1
    43   11   41 1
    44   11   42 1
    45   12   43 1
    46   12   44 1
    47   13   45 1
    48   13   46 1
    49   14   47 1
    50   14   48 1
    51   15   49 1
    52   16   50 1
    53   17   51 1
    54   18   52 1
    55   18   53 1
    56   18   54 1
    57   19   55 1
    58   19   56 1
    59   19   57 1
    60   20   58 1
    61   20   59 1
    62   21   60 1
    63   21   61 1
    64   22   62 1
    65   22   63 1
    66   23   64 1
    67   24   65 1
    68   26   66 1
    69   26   67 1
    70   27   68 1
    71   27   69 1
    72   28   70 1
    73   29   71 1
    74   34   72 1
@<TRIPOS>MOLECULE
1dwc_ligand_388
   72    74     0     0     0
SMALL
USER_CHARGES

mmff94s_NoEstat = 84.28
@<TRIPOS>ATOM
      1 C1         -1.5516   -4.4277    7.3298 C.ar      1 <0>        -0.1945
      2 C2         -2.3348   -5.5104    6.9352 C.ar      1 <0>        -0.0294
      3 C3         -1.5385   -3.2654    6.5644 C.ar      1 <0>        -0.0143
      4 C4         -3.1142   -5.4347    5.7720 C.ar      1 <0>        -0.1552
      5 C5         -3.0840   -4.2723    4.9761 C.ar      1 <0>         0.3076
      6 C6         -2.3015   -3.1877    5.3982 C.ar      1 <0>        -0.4908
      7 C7          3.6572    0.2351    4.2205 C.2       1 <0>         0.5994
      8 C8          0.8654   -1.4427    3.2413 C.2       1 <0>         0.6462
      9 C9         -1.1012   -7.8073    4.3609 C.cat     1 <0>         0.6305
     10 C10        -3.9512   -6.6204    5.3554 C.3       1 <0>        -0.0319
     11 C11         3.8985   -3.4862    3.6166 C.3       1 <0>        -0.0918
     12 C12         4.5525   -1.3270    2.5319 C.3       1 <0>        -0.0841
     13 C13         2.6738   -2.8056    4.2145 C.3       1 <0>         0.0870
     14 C14        -4.5113   -5.3376    3.2753 C.3       1 <0>         0.2023
     15 C15         3.2751   -0.6689    3.0601 C.3       1 <0>         0.0778
     16 C16        -5.0831   -6.2018    4.4040 C.3       1 <0>        -0.0746
     17 C17         5.0385   -2.4845    3.4144 C.3       1 <0>        -0.0681
     18 C18        -5.8039   -7.4257    3.8454 C.3       1 <0>        -0.0944
     19 C19         6.2563   -3.1661    2.7936 C.3       1 <0>        -0.0918
     20 C20        -0.5404   -4.8511    2.0458 C.3       1 <0>        -0.1192
     21 C21         0.3004   -3.5693    2.0376 C.3       1 <0>        -0.0916
     22 C22        -0.3597   -5.6492    3.3311 C.3       1 <0>         0.1883
     23 C23        -0.0078   -2.6730    3.2260 C.3       1 <0>         0.1952
     24 N1         -3.8463   -4.1684    3.8190 N.pl3     1 <0>        -0.7670
     25 N2          2.2374   -1.6470    3.4280 N.am      1 <0>        -0.4509
     26 N3         -1.8613   -8.9717    4.3243 N.pl3     1 <0>        -0.8477
     27 N4         -0.2834   -7.5659    5.4595 N.pl3     1 <0>        -0.8633
     28 N5         -1.1428   -6.8764    3.3174 N.pl3     1 <0>        -0.7419
     29 N6         -1.3760   -2.1385    3.1042 N.pl3     1 <0>        -0.8860
     30 O1          4.4823    1.1350    4.1670 O.2       1 <0>        -0.5199
     31 O2          0.3435   -0.3338    3.0981 O.2       1 <0>        -0.6131
     32 O3         -3.5960   -1.3232    4.1243 O.2       1 <0>        -0.6576
     33 O4         -1.4314   -0.7555    5.2719 O.2       1 <0>        -0.6482
     34 O5          2.9574   -0.0934    5.3339 O.3       1 <0>        -0.6303
     35 S1         -2.2397   -1.6774    4.4970 S.o2      1 <0>         1.5193
     36 H1         -0.9549   -4.4896    8.2356 H         1 <0>         0.1426
     37 H2         -2.3412   -6.4135    7.5409 H         1 <0>         0.1398
     38 H3         -0.9370   -2.4135    6.8653 H         1 <0>         0.1599
     39 H4         -3.2943   -7.3516    4.8675 H         1 <0>         0.0574
     40 H5         -4.3865   -7.1001    6.2407 H         1 <0>         0.0629
     41 H6          4.2244   -4.2993    4.2761 H         1 <0>         0.0614
     42 H7          3.6296   -3.9402    2.6542 H         1 <0>         0.0593
     43 H8          4.3500   -1.7152    1.5243 H         1 <0>         0.0841
     44 H9          5.3525   -0.5834    2.4253 H         1 <0>         0.0679
     45 H10         1.8623   -3.5349    4.3059 H         1 <0>         0.0826
     46 H11         2.8945   -2.4435    5.2260 H         1 <0>         0.0383
     47 H12        -3.7986   -5.9137    2.6721 H         1 <0>         0.0556
     48 H13        -5.3138   -5.0110    2.6047 H         1 <0>         0.0415
     49 H14         2.8873    0.0006    2.2858 H         1 <0>         0.0851
     50 H15        -5.8148   -5.6064    4.9667 H         1 <0>         0.0639
     51 H16         5.3432   -2.0892    4.3913 H         1 <0>         0.0584
     52 H17        -6.7464   -7.1341    3.3725 H         1 <0>         0.0401
     53 H18        -5.1841   -7.9286    3.0971 H         1 <0>         0.0440
     54 H19        -6.0259   -8.1390    4.6448 H         1 <0>         0.0459
     55 H20         6.5585   -2.6519    1.8763 H         1 <0>         0.0456
     56 H21         7.1004   -3.1536    3.4896 H         1 <0>         0.0366
     57 H22         6.0293   -4.2073    2.5458 H         1 <0>         0.0474
     58 H23        -1.5993   -4.5943    1.9218 H         1 <0>         0.0800
     59 H24        -0.2563   -5.4850    1.1980 H         1 <0>         0.0681
     60 H25         0.1357   -3.0322    1.0943 H         1 <0>         0.0740
     61 H26         1.3654   -3.8328    2.0643 H         1 <0>         0.0631
     62 H27        -0.6565   -5.0623    4.2062 H         1 <0>         0.0970
     63 H28         0.6914   -5.9295    3.4522 H         1 <0>         0.0725
     64 H29         0.1003   -3.1895    4.1787 H         1 <0>         0.0839
     65 H30        -3.7341   -3.3447    3.2409 H         1 <0>         0.4531
     66 H31        -2.4745   -9.1890    3.5432 H         1 <0>         0.4798
     67 H32        -1.8257   -9.6431    5.0878 H         1 <0>         0.4881
     68 H33         0.2854   -6.7248    5.5187 H         1 <0>         0.4801
     69 H34        -0.2317   -8.2251    6.2325 H         1 <0>         0.4806
     70 H35        -1.7526   -7.0814    2.5245 H         1 <0>         0.4689
     71 H36        -1.6042   -1.6955    2.2078 H         1 <0>         0.4505
     72 H37         3.1915    0.4784    6.0959 H         1 <0>         0.4443
@<TRIPOS>BOND
     1    1    2 ar
     2    1    3 ar
     3    2    4 ar
     4    3    6 ar
     5    4    5 ar
     6    4   10 1
     7    5    6 ar
     8    5   24 1
     9    6   35 1
    10    7   15 1
    11    7   30 2
    12    7   34 1
    13    8   23 1
    14    8   25 am
    15    8   31 2
    16    9   26 1
    17    9   27 1
    18    9   28 1
    19   10   16 1
    20   11   13 1
    21   11   17 1
    22   12   15 1
    23   12   17 1
    24   13   25 1
    25   14   16 1
    26   14   24 1
    27   15   25 1
    28   16   18 1
    29   17   19 1
    30   20   21 1
    31   20   22 1
    32   21   23 1
    33   22   28 1
    34   23   29 1
    35   29   35 1
    36   32   35 2
    37   33   35 2
    38    1   36 1
    39    2   37 1
    40    3   38 1
    41   10   39 1
    42   10   40 1
    43   11   41 1
    44   11   42 1
    45   12   43 1
    46   12   44 1
    47   13   45 1
    48   13   46 1
    49   14   47 1
    50   14   48 1
    51   15   49 1
    52   16   50 1
    53   17   51 1
    54   18   52 1
    55   18   53 1
    56   18   54 1
    57   19   55 1
    58   19   56 1
    59   19   57 1
    60   20   58 1
    61   20   59 1
    62   21   60 1
    63   21   61 1
    64   22   62 1
    65   22   63 1
    66   23   64 1
    67   24   65 1
    68   26   66 1
    69   26   67 1
    70   27   68 1
    71   27   69 1
    72   28   70 1
    73   29   71 1
    74   34   72 1
@<TRIPOS>MOLECULE
1dwc_ligand_389
   72    74     0     0     0
SMALL
USER_CHARGES

mmff94s_NoEstat = 84.33
@<TRIPOS>ATOM
      1 C1          3.0663   -5.3446    0.2255 C.ar      1 <0>        -0.1945
      2 C2          2.1815   -5.1402   -0.8311 C.ar      1 <0>        -0.0294
      3 C3          2.5874   -5.3953    1.5311 C.ar      1 <0>        -0.0143
      4 C4          0.8098   -4.9811   -0.5868 C.ar      1 <0>        -0.1552
      5 C5          0.3134   -5.0598    0.7291 C.ar      1 <0>         0.3076
      6 C6          1.2217   -5.2505    1.7807 C.ar      1 <0>        -0.4908
      7 C7          1.9642    1.4662    1.8632 C.2       1 <0>         0.5994
      8 C8          0.8654   -1.4427    3.2413 C.2       1 <0>         0.6462
      9 C9         -4.4066   -3.3472    6.8497 C.cat     1 <0>         0.6305
     10 C10        -0.1343   -4.7687   -1.7458 C.3       1 <0>        -0.0319
     11 C11        -1.6490    0.4795    1.3708 C.3       1 <0>        -0.0918
     12 C12        -0.2722    2.0957    2.6970 C.3       1 <0>        -0.0841
     13 C13        -0.4988   -0.5187    1.4084 C.3       1 <0>         0.0870
     14 C14        -2.0086   -4.8917   -0.0769 C.3       1 <0>         0.2023
     15 C15         0.8473    1.0575    2.8095 C.3       1 <0>         0.0778
     16 C16        -1.4742   -4.1541   -1.3093 C.3       1 <0>        -0.0746
     17 C17        -1.1290    1.9179    1.4364 C.3       1 <0>        -0.0681
     18 C18        -1.3590   -2.6450   -1.0665 C.3       1 <0>        -0.0944
     19 C19        -2.2862    2.9148    1.4217 C.3       1 <0>        -0.0918
     20 C20        -1.0866   -2.1427    5.4567 C.3       1 <0>        -0.1192
     21 C21        -1.3133   -2.4479    3.9716 C.3       1 <0>        -0.0916
     22 C22        -2.3970   -1.9935    6.2196 C.3       1 <0>         0.1883
     23 C23        -0.0078   -2.6730    3.2260 C.3       1 <0>         0.1952
     24 N1         -1.0391   -4.8985    1.0022 N.pl3     1 <0>        -0.7670
     25 N2          0.3794   -0.3174    2.5658 N.am      1 <0>        -0.4509
     26 N3         -5.1439   -4.5252    6.7900 N.pl3     1 <0>        -0.8477
     27 N4         -4.8938   -2.2796    7.5959 N.pl3     1 <0>        -0.8633
     28 N5         -3.1876   -3.2152    6.1760 N.pl3     1 <0>        -0.7419
     29 N6          0.7961   -3.6905    3.9267 N.pl3     1 <0>        -0.8860
     30 O1          2.0982    1.0595    0.7186 O.2       1 <0>        -0.5199
     31 O2          1.9492   -1.4826    3.8301 O.2       1 <0>        -0.6131
     32 O3         -0.6876   -5.7475    3.4786 O.2       1 <0>        -0.6576
     33 O4          1.7036   -6.0834    4.1813 O.2       1 <0>        -0.6482
     34 O5          2.8013    2.3474    2.4630 O.3       1 <0>        -0.6303
     35 S1          0.6998   -5.3249    3.4597 S.o2      1 <0>         1.5193
     36 H1          4.1291   -5.4609    0.0309 H         1 <0>         0.1426
     37 H2          2.5650   -5.0991   -1.8478 H         1 <0>         0.1398
     38 H3          3.2680   -5.5480    2.3628 H         1 <0>         0.1599
     39 H4          0.3338   -4.1283   -2.5034 H         1 <0>         0.0574
     40 H5         -0.3197   -5.7465   -2.2084 H         1 <0>         0.0629
     41 H6         -2.2327    0.3316    0.4545 H         1 <0>         0.0614
     42 H7         -2.3231    0.2907    2.2162 H         1 <0>         0.0593
     43 H8         -0.9212    2.0009    3.5784 H         1 <0>         0.0841
     44 H9          0.1416    3.1118    2.7215 H         1 <0>         0.0679
     45 H10        -0.9021   -1.5366    1.4052 H         1 <0>         0.0826
     46 H11         0.1232   -0.4178    0.5108 H         1 <0>         0.0383
     47 H12        -2.9364   -4.4263    0.2739 H         1 <0>         0.0556
     48 H13        -2.2504   -5.9282   -0.3429 H         1 <0>         0.0415
     49 H14         1.2785    1.1236    3.8134 H         1 <0>         0.0851
     50 H15        -2.1918   -4.2811   -2.1293 H         1 <0>         0.0639
     51 H16        -0.5120    2.1147    0.5510 H         1 <0>         0.0584
     52 H17        -0.3143   -2.3251   -1.1240 H         1 <0>         0.0401
     53 H18        -1.9310   -2.0901   -1.8162 H         1 <0>         0.0440
     54 H19        -1.7449   -2.3845   -0.0764 H         1 <0>         0.0459
     55 H20        -2.0602    3.7755    2.0582 H         1 <0>         0.0456
     56 H21        -2.4693    3.2764    0.4054 H         1 <0>         0.0366
     57 H22        -3.2029    2.4449    1.7906 H         1 <0>         0.0474
     58 H23        -0.4913   -2.9455    5.9081 H         1 <0>         0.0800
     59 H24        -0.5143   -1.2136    5.5600 H         1 <0>         0.0681
     60 H25        -1.8840   -1.6286    3.5148 H         1 <0>         0.0740
     61 H26        -1.9315   -3.3495    3.8758 H         1 <0>         0.0631
     62 H27        -3.0022   -1.1781    5.8107 H         1 <0>         0.0970
     63 H28        -2.1935   -1.7693    7.2716 H         1 <0>         0.0725
     64 H29        -0.1638   -2.9774    2.1921 H         1 <0>         0.0839
     65 H30        -1.3562   -5.0385    1.9537 H         1 <0>         0.4531
     66 H31        -4.8283   -5.3304    6.2558 H         1 <0>         0.4798
     67 H32        -6.0298   -4.6126    7.2825 H         1 <0>         0.4881
     68 H33        -4.3804   -1.4040    7.6609 H         1 <0>         0.4801
     69 H34        -5.7763   -2.3468    8.0972 H         1 <0>         0.4806
     70 H35        -2.8559   -4.0162    5.6365 H         1 <0>         0.4689
     71 H36         1.6533   -3.3509    4.3757 H         1 <0>         0.4505
     72 H37         3.5313    2.6224    1.8681 H         1 <0>         0.4443
@<TRIPOS>BOND
     1    1    2 ar
     2    1    3 ar
     3    2    4 ar
     4    3    6 ar
     5    4    5 ar
     6    4   10 1
     7    5    6 ar
     8    5   24 1
     9    6   35 1
    10    7   15 1
    11    7   30 2
    12    7   34 1
    13    8   23 1
    14    8   25 am
    15    8   31 2
    16    9   26 1
    17    9   27 1
    18    9   28 1
    19   10   16 1
    20   11   13 1
    21   11   17 1
    22   12   15 1
    23   12   17 1
    24   13   25 1
    25   14   16 1
    26   14   24 1
    27   15   25 1
    28   16   18 1
    29   17   19 1
    30   20   21 1
    31   20   22 1
    32   21   23 1
    33   22   28 1
    34   23   29 1
    35   29   35 1
    36   32   35 2
    37   33   35 2
    38    1   36 1
    39    2   37 1
    40    3   38 1
    41   10   39 1
    42   10   40 1
    43   11   41 1
    44   11   42 1
    45   12   43 1
    46   12   44 1
    47   13   45 1
    48   13   46 1
    49   14   47 1
    50   14   48 1
    51   15   49 1
    52   16   50 1
    53   17   51 1
    54   18   52 1
    55   18   53 1
    56   18   54 1
    57   19   55 1
    58   19   56 1
    59   19   57 1
    60   20   58 1
    61   20   59 1
    62   21   60 1
    63   21   61 1
    64   22   62 1
    65   22   63 1
    66   23   64 1
    67   24   65 1
    68   26   66 1
    69   26   67 1
    70   27   68 1
    71   27   69 1
    72   28   70 1
    73   29   71 1
    74   34   72 1
@<TRIPOS>MOLECULE
1dwc_ligand_390
   72    74     0     0     0
SMALL
USER_CHARGES

mmff94s_NoEstat = 84.35
@<TRIPOS>ATOM
      1 C1          7.4663   -1.7419   -5.0555 C.ar      1 <0>        -0.1945
      2 C2          7.8189   -3.0367   -5.4300 C.ar      1 <0>        -0.0294
      3 C3          6.9552   -1.5029   -3.7834 C.ar      1 <0>        -0.0143
      4 C4          7.6581   -4.1030   -4.5334 C.ar      1 <0>        -0.1552
      5 C5          7.1684   -3.8650   -3.2343 C.ar      1 <0>         0.3076
      6 C6          6.8044   -2.5574   -2.8813 C.ar      1 <0>        -0.4908
      7 C7          3.7685    1.5685    0.3235 C.2       1 <0>         0.5994
      8 C8          2.9466   -1.3973   -0.6457 C.2       1 <0>         0.6462
      9 C9         -1.2208   -5.2227   -3.0846 C.cat     1 <0>         0.6305
     10 C10         8.0535   -5.4978   -4.9550 C.3       1 <0>        -0.0319
     11 C11         1.8611    1.7587   -2.3835 C.3       1 <0>        -0.0918
     12 C12         1.3294    1.8958    0.1130 C.3       1 <0>        -0.0841
     13 C13         1.7075    0.2690   -2.0963 C.3       1 <0>         0.0870
     14 C14         7.5357   -6.2183   -2.6043 C.3       1 <0>         0.2023
     15 C15         2.4335    0.8481    0.2329 C.3       1 <0>         0.0778
     16 C16         7.3986   -6.5839   -4.0862 C.3       1 <0>        -0.0746
     17 C17         1.3508    2.6418   -1.2332 C.3       1 <0>        -0.0681
     18 C18         5.9378   -6.8286   -4.4814 C.3       1 <0>        -0.0944
     19 C19        -0.0342    3.2135   -1.5417 C.3       1 <0>        -0.0918
     20 C20         2.0376   -4.1819   -1.4375 C.3       1 <0>        -0.1192
     21 C21         2.4114   -3.0756   -2.4306 C.3       1 <0>        -0.0916
     22 C22         1.0502   -5.1786   -2.0318 C.3       1 <0>         0.1883
     23 C23         3.4544   -2.1251   -1.8653 C.3       1 <0>         0.1952
     24 N1          6.9914   -4.9024   -2.3274 N.pl3     1 <0>        -0.7670
     25 N2          2.3949   -0.1309   -0.8598 N.am      1 <0>        -0.4509
     26 N3         -2.3889   -4.5781   -3.4783 N.pl3     1 <0>        -0.8477
     27 N4         -1.0858   -6.5863   -3.3223 N.pl3     1 <0>        -0.8633
     28 N5         -0.1815   -4.5286   -2.4559 N.pl3     1 <0>        -0.7419
     29 N6          4.6097   -2.8934   -1.3678 N.pl3     1 <0>        -0.8860
     30 O1          4.0589    2.4051    1.1656 O.2       1 <0>        -0.5199
     31 O2          3.0377   -1.9312    0.4627 O.2       1 <0>        -0.6131
     32 O3          6.9529   -2.8526   -0.2994 O.2       1 <0>        -0.6576
     33 O4          5.9925   -0.7285   -1.2427 O.2       1 <0>        -0.6482
     34 O5          4.6017    1.1585   -0.6640 O.3       1 <0>        -0.6303
     35 S1          6.1490   -2.1694   -1.2948 S.o2      1 <0>         1.5193
     36 H1          7.5871   -0.9204   -5.7565 H         1 <0>         0.1426
     37 H2          8.2148   -3.2146   -6.4271 H         1 <0>         0.1398
     38 H3          6.6714   -0.4992   -3.4825 H         1 <0>         0.1599
     39 H4          7.7935   -5.6635   -6.0077 H         1 <0>         0.0574
     40 H5          9.1448   -5.5757   -4.8678 H         1 <0>         0.0629
     41 H6          2.9275    1.9711   -2.5379 H         1 <0>         0.0614
     42 H7          1.3587    2.0144   -3.3237 H         1 <0>         0.0593
     43 H8          0.3614    1.3894    0.2306 H         1 <0>         0.0841
     44 H9          1.3961    2.6253    0.9302 H         1 <0>         0.0679
     45 H10         0.6501    0.0044   -1.9791 H         1 <0>         0.0826
     46 H11         2.0979   -0.3101   -2.9388 H         1 <0>         0.0383
     47 H12         7.0247   -6.9593   -1.9795 H         1 <0>         0.0556
     48 H13         8.5943   -6.2318   -2.3170 H         1 <0>         0.0415
     49 H14         2.3194    0.3128    1.1832 H         1 <0>         0.0851
     50 H15         7.9285   -7.5282   -4.2621 H         1 <0>         0.0639
     51 H16         2.0299    3.4998   -1.1486 H         1 <0>         0.0584
     52 H17         5.6097   -6.0886   -5.2174 H         1 <0>         0.0401
     53 H18         5.8194   -7.8248   -4.9181 H         1 <0>         0.0440
     54 H19         5.2856   -6.7563   -3.6060 H         1 <0>         0.0459
     55 H20         0.0409    4.0371   -2.2580 H         1 <0>         0.0456
     56 H21        -0.6818    2.4425   -1.9698 H         1 <0>         0.0366
     57 H22        -0.5055    3.5921   -0.6298 H         1 <0>         0.0474
     58 H23         2.9446   -4.7113   -1.1217 H         1 <0>         0.0800
     59 H24         1.5893   -3.7381   -0.5411 H         1 <0>         0.0681
     60 H25         1.5058   -2.5277   -2.7226 H         1 <0>         0.0740
     61 H26         2.8104   -3.5289   -3.3468 H         1 <0>         0.0631
     62 H27         0.7947   -5.9607   -1.3098 H         1 <0>         0.0970
     63 H28         1.4892   -5.6603   -2.9113 H         1 <0>         0.0725
     64 H29         3.7902   -1.3903   -2.5956 H         1 <0>         0.0839
     65 H30         6.7085   -4.6707   -1.3830 H         1 <0>         0.4531
     66 H31        -2.5325   -3.5838   -3.3234 H         1 <0>         0.4798
     67 H32        -3.1402   -5.0906   -3.9344 H         1 <0>         0.4881
     68 H33        -0.2453   -7.0887   -3.0475 H         1 <0>         0.4801
     69 H34        -1.8241   -7.1168   -3.7785 H         1 <0>         0.4806
     70 H35        -0.3098   -3.5285   -2.2950 H         1 <0>         0.4689
     71 H36         4.3912   -3.6637   -0.7270 H         1 <0>         0.4505
     72 H37         5.4695    1.6141   -0.6238 H         1 <0>         0.4443
@<TRIPOS>BOND
     1    1    2 ar
     2    1    3 ar
     3    2    4 ar
     4    3    6 ar
     5    4    5 ar
     6    4   10 1
     7    5    6 ar
     8    5   24 1
     9    6   35 1
    10    7   15 1
    11    7   30 2
    12    7   34 1
    13    8   23 1
    14    8   25 am
    15    8   31 2
    16    9   26 1
    17    9   27 1
    18    9   28 1
    19   10   16 1
    20   11   13 1
    21   11   17 1
    22   12   15 1
    23   12   17 1
    24   13   25 1
    25   14   16 1
    26   14   24 1
    27   15   25 1
    28   16   18 1
    29   17   19 1
    30   20   21 1
    31   20   22 1
    32   21   23 1
    33   22   28 1
    34   23   29 1
    35   29   35 1
    36   32   35 2
    37   33   35 2
    38    1   36 1
    39    2   37 1
    40    3   38 1
    41   10   39 1
    42   10   40 1
    43   11   41 1
    44   11   42 1
    45   12   43 1
    46   12   44 1
    47   13   45 1
    48   13   46 1
    49   14   47 1
    50   14   48 1
    51   15   49 1
    52   16   50 1
    53   17   51 1
    54   18   52 1
    55   18   53 1
    56   18   54 1
    57   19   55 1
    58   19   56 1
    59   19   57 1
    60   20   58 1
    61   20   59 1
    62   21   60 1
    63   21   61 1
    64   22   62 1
    65   22   63 1
    66   23   64 1
    67   24   65 1
    68   26   66 1
    69   26   67 1
    70   27   68 1
    71   27   69 1
    72   28   70 1
    73   29   71 1
    74   34   72 1
@<TRIPOS>MOLECULE
1dwc_ligand_391
   72    74     0     0     0
SMALL
USER_CHARGES

mmff94s_NoEstat = 84.59
@<TRIPOS>ATOM
      1 C1          3.0864   -6.8132   -1.6121 C.ar      1 <0>        -0.1945
      2 C2          2.0235   -6.9752   -0.7260 C.ar      1 <0>        -0.0294
      3 C3          3.0725   -5.7656   -2.5283 C.ar      1 <0>        -0.0143
      4 C4          0.9399   -6.0855   -0.7488 C.ar      1 <0>        -0.1552
      5 C5          0.9045   -5.0397   -1.6925 C.ar      1 <0>         0.3076
      6 C6          1.9909   -4.8841   -2.5656 C.ar      1 <0>        -0.4908
      7 C7          1.9683   -0.7067    2.3504 C.2       1 <0>         0.5994
      8 C8          2.9466   -1.3973   -0.6457 C.2       1 <0>         0.6462
      9 C9          8.6246   -0.6311   -3.9966 C.cat     1 <0>         0.6305
     10 C10        -0.2069   -6.2806    0.2139 C.3       1 <0>        -0.0319
     11 C11         2.1854   -3.9944    1.9686 C.3       1 <0>        -0.0918
     12 C12         3.8131   -2.2556    2.8966 C.3       1 <0>        -0.0841
     13 C13         2.8391   -3.5657    0.6593 C.3       1 <0>         0.0870
     14 C14        -1.3613   -4.3977   -0.9727 C.3       1 <0>         0.2023
     15 C15         3.2228   -1.3678    1.8038 C.3       1 <0>         0.0778
     16 C16        -1.0112   -4.9842    0.3988 C.3       1 <0>        -0.0746
     17 C17         2.9444   -3.4881    3.2059 C.3       1 <0>        -0.0681
     18 C18        -2.2700   -5.2387    1.2234 C.3       1 <0>        -0.0944
     19 C19         3.7998   -4.5942    3.8264 C.3       1 <0>        -0.0918
     20 C20         5.7415   -1.0578   -1.6401 C.3       1 <0>        -0.1192
     21 C21         4.5564   -1.3488   -2.5679 C.3       1 <0>        -0.0916
     22 C22         6.8115   -0.2136   -2.3213 C.3       1 <0>         0.1883
     23 C23         3.4544   -2.1251   -1.8653 C.3       1 <0>         0.1952
     24 N1         -0.1556   -4.1426   -1.7381 N.pl3     1 <0>        -0.7670
     25 N2          2.9741   -2.1051    0.5595 N.am      1 <0>        -0.4509
     26 N3          9.0987   -1.2682   -5.1386 N.pl3     1 <0>        -0.8477
     27 N4          9.4551    0.2567   -3.3213 N.pl3     1 <0>        -0.8633
     28 N5          7.3321   -0.8648   -3.5148 N.pl3     1 <0>        -0.7419
     29 N6          2.2741   -2.2179   -2.7432 N.pl3     1 <0>        -0.8860
     30 O1          1.9215   -0.0131    3.3555 O.2       1 <0>        -0.5199
     31 O2          2.5356   -0.2394   -0.7559 O.2       1 <0>        -0.6131
     32 O3          3.2466   -3.7694   -4.5546 O.2       1 <0>        -0.6576
     33 O4          0.7526   -3.5048   -4.3692 O.2       1 <0>        -0.6482
     34 O5          0.8975   -0.9928    1.5701 O.3       1 <0>        -0.6303
     35 S1          2.0591   -3.5786   -3.7438 S.o2      1 <0>         1.5193
     36 H1          3.9266   -7.5016   -1.5854 H         1 <0>         0.1426
     37 H2          2.0443   -7.7948   -0.0116 H         1 <0>         0.1398
     38 H3          3.8977   -5.6260   -3.2193 H         1 <0>         0.1599
     39 H4         -0.8529   -7.0772   -0.1766 H         1 <0>         0.0574
     40 H5          0.1751   -6.6074    1.1889 H         1 <0>         0.0629
     41 H6          1.1666   -3.5855    1.9944 H         1 <0>         0.0614
     42 H7          2.0785   -5.0851    1.9962 H         1 <0>         0.0593
     43 H8          4.8081   -2.5873    2.5693 H         1 <0>         0.0841
     44 H9          3.9682   -1.6833    3.8202 H         1 <0>         0.0679
     45 H10         3.8460   -3.9906    0.5720 H         1 <0>         0.0826
     46 H11         2.2519   -3.9401   -0.1848 H         1 <0>         0.0383
     47 H12        -2.0084   -5.0849   -1.5319 H         1 <0>         0.0556
     48 H13        -1.9126   -3.4583   -0.8533 H         1 <0>         0.0415
     49 H14         3.9207   -0.5495    1.5893 H         1 <0>         0.0851
     50 H15        -0.3913   -4.2593    0.9436 H         1 <0>         0.0639
     51 H16         2.1980   -3.2111    3.9613 H         1 <0>         0.0584
     52 H17        -2.7070   -4.2936    1.5593 H         1 <0>         0.0401
     53 H18        -3.0178   -5.7721    0.6290 H         1 <0>         0.0440
     54 H19        -2.0361   -5.8426    2.1053 H         1 <0>         0.0459
     55 H20         3.2622   -5.0822    4.6449 H         1 <0>         0.0456
     56 H21         4.0499   -5.3522    3.0782 H         1 <0>         0.0366
     57 H22         4.7318   -4.1818    4.2242 H         1 <0>         0.0474
     58 H23         5.3842   -0.5386   -0.7426 H         1 <0>         0.0800
     59 H24         6.1956   -2.0004   -1.3135 H         1 <0>         0.0681
     60 H25         4.9119   -1.8947   -3.4517 H         1 <0>         0.0740
     61 H26         4.1396   -0.4017   -2.9334 H         1 <0>         0.0631
     62 H27         7.6493   -0.0157   -1.6451 H         1 <0>         0.0970
     63 H28         6.3893    0.7487   -2.6278 H         1 <0>         0.0725
     64 H29         3.7703   -3.1244   -1.5692 H         1 <0>         0.0839
     65 H30        -0.1728   -3.4550   -2.4811 H         1 <0>         0.4531
     66 H31         8.5283   -1.9260   -5.6632 H         1 <0>         0.4798
     67 H32        10.0403   -1.0929   -5.4818 H         1 <0>         0.4881
     68 H33         9.1405    0.7395   -2.4832 H         1 <0>         0.4801
     69 H34        10.3992    0.4474   -3.6487 H         1 <0>         0.4806
     70 H35         6.7459   -1.5217   -4.0320 H         1 <0>         0.4689
     71 H36         1.4502   -1.6870   -2.4414 H         1 <0>         0.4505
     72 H37         0.0762   -0.5760    1.9078 H         1 <0>         0.4443
@<TRIPOS>BOND
     1    1    2 ar
     2    1    3 ar
     3    2    4 ar
     4    3    6 ar
     5    4    5 ar
     6    4   10 1
     7    5    6 ar
     8    5   24 1
     9    6   35 1
    10    7   15 1
    11    7   30 2
    12    7   34 1
    13    8   23 1
    14    8   25 am
    15    8   31 2
    16    9   26 1
    17    9   27 1
    18    9   28 1
    19   10   16 1
    20   11   13 1
    21   11   17 1
    22   12   15 1
    23   12   17 1
    24   13   25 1
    25   14   16 1
    26   14   24 1
    27   15   25 1
    28   16   18 1
    29   17   19 1
    30   20   21 1
    31   20   22 1
    32   21   23 1
    33   22   28 1
    34   23   29 1
    35   29   35 1
    36   32   35 2
    37   33   35 2
    38    1   36 1
    39    2   37 1
    40    3   38 1
    41   10   39 1
    42   10   40 1
    43   11   41 1
    44   11   42 1
    45   12   43 1
    46   12   44 1
    47   13   45 1
    48   13   46 1
    49   14   47 1
    50   14   48 1
    51   15   49 1
    52   16   50 1
    53   17   51 1
    54   18   52 1
    55   18   53 1
    56   18   54 1
    57   19   55 1
    58   19   56 1
    59   19   57 1
    60   20   58 1
    61   20   59 1
    62   21   60 1
    63   21   61 1
    64   22   62 1
    65   22   63 1
    66   23   64 1
    67   24   65 1
    68   26   66 1
    69   26   67 1
    70   27   68 1
    71   27   69 1
    72   28   70 1
    73   29   71 1
    74   34   72 1
@<TRIPOS>MOLECULE
1dwc_ligand_392
   72    74     0     0     0
SMALL
USER_CHARGES

mmff94s_NoEstat = 84.66
@<TRIPOS>ATOM
      1 C1          2.5114   -5.6807   -0.0973 C.ar      1 <0>        -0.1945
      2 C2          3.8673   -5.6123    0.2155 C.ar      1 <0>        -0.0294
      3 C3          1.5608   -5.5920    0.9152 C.ar      1 <0>        -0.0143
      4 C4          4.2812   -5.4584    1.5465 C.ar      1 <0>        -0.1552
      5 C5          3.3248   -5.3390    2.5738 C.ar      1 <0>         0.3076
      6 C6          1.9651   -5.4258    2.2408 C.ar      1 <0>        -0.4908
      7 C7          1.0326   -1.5891   -0.1526 C.2       1 <0>         0.5994
      8 C8          0.8654   -1.4427    3.2413 C.2       1 <0>         0.6462
      9 C9         -5.3792    0.5120    4.1450 C.cat     1 <0>         0.6305
     10 C10         5.7550   -5.3781    1.8646 C.3       1 <0>        -0.0319
     11 C11         4.0928   -0.4819    1.7658 C.3       1 <0>        -0.0918
     12 C12         3.2369   -2.4756    0.5172 C.3       1 <0>        -0.0841
     13 C13         2.6673   -0.1389    2.1793 C.3       1 <0>         0.0870
     14 C14         5.0872   -4.9119    4.2416 C.3       1 <0>         0.2023
     15 C15         1.8171   -2.1794    1.0075 C.3       1 <0>         0.0778
     16 C16         6.0568   -5.6843    3.3406 C.3       1 <0>        -0.0746
     17 C17         4.1123   -1.2187    0.4240 C.3       1 <0>        -0.0681
     18 C18         6.0291   -7.1895    3.6296 C.3       1 <0>        -0.0944
     19 C19         5.5413   -1.5810    0.0243 C.3       1 <0>        -0.0918
     20 C20        -2.1115   -1.2711    3.3990 C.3       1 <0>        -0.1192
     21 C21        -1.3133   -2.4479    3.9716 C.3       1 <0>        -0.0916
     22 C22        -3.3821   -0.9970    4.1941 C.3       1 <0>         0.1883
     23 C23        -0.0078   -2.6730    3.2260 C.3       1 <0>         0.1952
     24 N1          3.7051   -5.1932    3.9020 N.pl3     1 <0>        -0.7670
     25 N2          1.7920   -1.3156    2.2000 N.am      1 <0>        -0.4509
     26 N3         -6.0873    1.5705    3.5854 N.pl3     1 <0>        -0.8477
     27 N4         -5.9120   -0.1549    5.2429 N.pl3     1 <0>        -0.8633
     28 N5         -4.1449    0.1056    3.6268 N.pl3     1 <0>        -0.7419
     29 N6          0.7961   -3.6905    3.9267 N.pl3     1 <0>        -0.8860
     30 O1          0.8941   -0.3947   -0.3706 O.2       1 <0>        -0.5199
     31 O2          0.7326   -0.6231    4.1542 O.2       1 <0>        -0.6131
     32 O3         -0.5724   -5.5617    2.8045 O.2       1 <0>        -0.6576
     33 O4          1.1151   -6.1600    4.5705 O.2       1 <0>        -0.6482
     34 O5          0.4997   -2.5717   -0.9193 O.3       1 <0>        -0.6303
     35 S1          0.6998   -5.3249    3.4597 S.o2      1 <0>         1.5193
     36 H1          2.1966   -5.8064   -1.1298 H         1 <0>         0.1426
     37 H2          4.6032   -5.6854   -0.5818 H         1 <0>         0.1398
     38 H3          0.5018   -5.6500    0.6842 H         1 <0>         0.1599
     39 H4          6.3190   -6.0672    1.2240 H         1 <0>         0.0574
     40 H5          6.0915   -4.3598    1.6315 H         1 <0>         0.0629
     41 H6          4.6862    0.4377    1.6990 H         1 <0>         0.0614
     42 H7          4.5556   -1.1085    2.5390 H         1 <0>         0.0593
     43 H8          3.7056   -3.1781    1.2199 H         1 <0>         0.0841
     44 H9          3.2100   -2.9795   -0.4573 H         1 <0>         0.0679
     45 H10         2.6813    0.3462    3.1608 H         1 <0>         0.0826
     46 H11         2.2276    0.5771    1.4744 H         1 <0>         0.0383
     47 H12         5.2594   -5.1654    5.2935 H         1 <0>         0.0556
     48 H13         5.2655   -3.8345    4.1379 H         1 <0>         0.0415
     49 H14         1.3264   -3.1308    1.2358 H         1 <0>         0.0851
     50 H15         7.0777   -5.3469    3.5580 H         1 <0>         0.0639
     51 H16         3.7098   -0.5563   -0.3523 H         1 <0>         0.0584
     52 H17         5.6697   -7.7420    2.7563 H         1 <0>         0.0401
     53 H18         7.0311   -7.5518    3.8781 H         1 <0>         0.0440
     54 H19         5.3653   -7.4070    4.4717 H         1 <0>         0.0459
     55 H20         5.5642   -2.5489   -0.4852 H         1 <0>         0.0456
     56 H21         5.9547   -0.8262   -0.6513 H         1 <0>         0.0366
     57 H22         6.1838   -1.6417    0.9078 H         1 <0>         0.0474
     58 H23        -1.4838   -0.3719    3.3933 H         1 <0>         0.0800
     59 H24        -2.3885   -1.4831    2.3599 H         1 <0>         0.0681
     60 H25        -1.9335   -3.3536    3.9489 H         1 <0>         0.0740
     61 H26        -1.0849   -2.2531    5.0271 H         1 <0>         0.0631
     62 H27        -3.1519   -0.7547    5.2365 H         1 <0>         0.0970
     63 H28        -4.0259   -1.8823    4.1866 H         1 <0>         0.0725
     64 H29        -0.1638   -2.9774    2.1921 H         1 <0>         0.0839
     65 H30         2.9820   -5.0361    4.5933 H         1 <0>         0.4531
     66 H31        -5.7362    2.0880    2.7841 H         1 <0>         0.4798
     67 H32        -6.9840    1.8599    3.9689 H         1 <0>         0.4881
     68 H33        -5.4209   -0.9328    5.6766 H         1 <0>         0.4801
     69 H34        -6.8078    0.1174    5.6406 H         1 <0>         0.4806
     70 H35        -3.7797    0.6144    2.8203 H         1 <0>         0.4689
     71 H36         1.6533   -3.3509    4.3757 H         1 <0>         0.4505
     72 H37        -0.0129   -2.2104   -1.6737 H         1 <0>         0.4443
@<TRIPOS>BOND
     1    1    2 ar
     2    1    3 ar
     3    2    4 ar
     4    3    6 ar
     5    4    5 ar
     6    4   10 1
     7    5    6 ar
     8    5   24 1
     9    6   35 1
    10    7   15 1
    11    7   30 2
    12    7   34 1
    13    8   23 1
    14    8   25 am
    15    8   31 2
    16    9   26 1
    17    9   27 1
    18    9   28 1
    19   10   16 1
    20   11   13 1
    21   11   17 1
    22   12   15 1
    23   12   17 1
    24   13   25 1
    25   14   16 1
    26   14   24 1
    27   15   25 1
    28   16   18 1
    29   17   19 1
    30   20   21 1
    31   20   22 1
    32   21   23 1
    33   22   28 1
    34   23   29 1
    35   29   35 1
    36   32   35 2
    37   33   35 2
    38    1   36 1
    39    2   37 1
    40    3   38 1
    41   10   39 1
    42   10   40 1
    43   11   41 1
    44   11   42 1
    45   12   43 1
    46   12   44 1
    47   13   45 1
    48   13   46 1
    49   14   47 1
    50   14   48 1
    51   15   49 1
    52   16   50 1
    53   17   51 1
    54   18   52 1
    55   18   53 1
    56   18   54 1
    57   19   55 1
    58   19   56 1
    59   19   57 1
    60   20   58 1
    61   20   59 1
    62   21   60 1
    63   21   61 1
    64   22   62 1
    65   22   63 1
    66   23   64 1
    67   24   65 1
    68   26   66 1
    69   26   67 1
    70   27   68 1
    71   27   69 1
    72   28   70 1
    73   29   71 1
    74   34   72 1
@<TRIPOS>MOLECULE
1dwc_ligand_393
   72    74     0     0     0
SMALL
USER_CHARGES

mmff94s_NoEstat = 84.70
@<TRIPOS>ATOM
      1 C1         -5.2181   -5.0178    3.0449 C.ar      1 <0>        -0.1945
      2 C2         -4.5375   -6.2333    3.0728 C.ar      1 <0>        -0.0294
      3 C3         -4.5725   -3.8518    3.4456 C.ar      1 <0>        -0.0143
      4 C4         -3.2028   -6.2885    3.4991 C.ar      1 <0>        -0.1552
      5 C5         -2.5512   -5.1172    3.9338 C.ar      1 <0>         0.3076
      6 C6         -3.2482   -3.9013    3.8837 C.ar      1 <0>        -0.4908
      7 C7          3.5686   -3.4379    3.7704 C.2       1 <0>         0.5994
      8 C8          0.8654   -1.4427    3.2413 C.2       1 <0>         0.6462
      9 C9         -0.6326   -5.9229   -1.4626 C.cat     1 <0>         0.6305
     10 C10        -2.4831   -7.6155    3.5299 C.3       1 <0>        -0.0319
     11 C11         3.4440   -0.0674    5.4719 C.3       1 <0>        -0.0918
     12 C12         3.1682   -2.4952    6.0163 C.3       1 <0>        -0.0841
     13 C13         2.9000   -0.3276    4.0730 C.3       1 <0>         0.0870
     14 C14        -0.5593   -6.4075    4.5910 C.3       1 <0>         0.2023
     15 C15         2.5392   -2.7371    4.6417 C.3       1 <0>         0.0778
     16 C16        -0.9579   -7.4272    3.5191 C.3       1 <0>        -0.0746
     17 C17         4.1435   -1.3104    6.0281 C.3       1 <0>        -0.0681
     18 C18        -0.2445   -8.7587    3.7372 C.3       1 <0>        -0.0944
     19 C19         4.6673   -1.0527    7.4396 C.3       1 <0>        -0.0918
     20 C20         0.0249   -2.8727    0.7002 C.3       1 <0>        -0.1192
     21 C21         0.3004   -3.5693    2.0376 C.3       1 <0>        -0.0916
     22 C22         0.2602   -3.7963   -0.4886 C.3       1 <0>         0.1883
     23 C23        -0.0078   -2.6730    3.2260 C.3       1 <0>         0.1952
     24 N1         -1.2291   -5.1415    4.3606 N.pl3     1 <0>        -0.7670
     25 N2          2.0252   -1.5038    4.0223 N.am      1 <0>        -0.4509
     26 N3         -1.4804   -7.0239   -1.4014 N.pl3     1 <0>        -0.8477
     27 N4          0.2178   -5.7819   -2.5539 N.pl3     1 <0>        -0.8633
     28 N5         -0.6182   -4.9567   -0.4508 N.pl3     1 <0>        -0.7419
     29 N6         -1.3760   -2.1385    3.1042 N.pl3     1 <0>        -0.8860
     30 O1          4.3335   -2.8779    2.9993 O.2       1 <0>        -0.5199
     31 O2          0.5240   -0.4555    2.5844 O.2       1 <0>        -0.6131
     32 O3         -3.5166   -1.3454    4.2968 O.2       1 <0>        -0.6576
     33 O4         -1.7865   -2.6277    5.5955 O.2       1 <0>        -0.6482
     34 O5          3.5241   -4.7791    3.9616 O.3       1 <0>        -0.6303
     35 S1         -2.5018   -2.3799    4.3583 S.o2      1 <0>         1.5193
     36 H1         -6.2501   -4.9800    2.7073 H         1 <0>         0.1426
     37 H2         -5.0489   -7.1388    2.7552 H         1 <0>         0.1398
     38 H3         -5.0907   -2.8984    3.4223 H         1 <0>         0.1599
     39 H4         -2.7938   -8.1552    4.4335 H         1 <0>         0.0574
     40 H5         -2.7756   -8.2196    2.6622 H         1 <0>         0.0629
     41 H6          4.1435    0.7764    5.4419 H         1 <0>         0.0614
     42 H7          2.6191    0.2214    6.1357 H         1 <0>         0.0593
     43 H8          2.3618   -2.2928    6.7345 H         1 <0>         0.0841
     44 H9          3.6813   -3.3988    6.3690 H         1 <0>         0.0679
     45 H10         2.3679    0.5618    3.7197 H         1 <0>         0.0826
     46 H11         3.7232   -0.5081    3.3711 H         1 <0>         0.0383
     47 H12        -0.8170   -6.7786    5.5907 H         1 <0>         0.0556
     48 H13         0.5242   -6.2452    4.5749 H         1 <0>         0.0415
     49 H14         1.7211   -3.4548    4.7590 H         1 <0>         0.0851
     50 H15        -0.6574   -7.0400    2.5360 H         1 <0>         0.0639
     51 H16         5.0063   -1.5479    5.3937 H         1 <0>         0.0584
     52 H17         0.8175   -8.6709    3.4890 H         1 <0>         0.0401
     53 H18        -0.3293   -9.0738    4.7815 H         1 <0>         0.0440
     54 H19        -0.6825   -9.5373    3.1056 H         1 <0>         0.0459
     55 H20         4.2777   -1.8006    8.1367 H         1 <0>         0.0456
     56 H21         5.7602   -1.1000    7.4588 H         1 <0>         0.0366
     57 H22         4.3590   -0.0627    7.7891 H         1 <0>         0.0474
     58 H23        -1.0105   -2.5120    0.6824 H         1 <0>         0.0800
     59 H24         0.6776   -1.9980    0.5976 H         1 <0>         0.0681
     60 H25         1.3460   -3.9033    2.0652 H         1 <0>         0.0740
     61 H26        -0.3175   -4.4733    2.1109 H         1 <0>         0.0631
     62 H27         1.2957   -4.1503   -0.5157 H         1 <0>         0.0970
     63 H28         0.0608   -3.2615   -1.4226 H         1 <0>         0.0725
     64 H29         0.1003   -3.1895    4.1787 H         1 <0>         0.0839
     65 H30        -0.8281   -4.2900    4.7342 H         1 <0>         0.4531
     66 H31        -2.1173   -7.1693   -0.6226 H         1 <0>         0.4798
     67 H32        -1.4841   -7.7223   -2.1412 H         1 <0>         0.4881
     68 H33         0.8505   -4.9892   -2.6303 H         1 <0>         0.4801
     69 H34         0.2286   -6.4677   -3.3050 H         1 <0>         0.4806
     70 H35        -1.2539   -5.0876    0.3375 H         1 <0>         0.4689
     71 H36        -1.4850   -1.3266    2.4871 H         1 <0>         0.4505
     72 H37         4.1809   -5.2504    3.4059 H         1 <0>         0.4443
@<TRIPOS>BOND
     1    1    2 ar
     2    1    3 ar
     3    2    4 ar
     4    3    6 ar
     5    4    5 ar
     6    4   10 1
     7    5    6 ar
     8    5   24 1
     9    6   35 1
    10    7   15 1
    11    7   30 2
    12    7   34 1
    13    8   23 1
    14    8   25 am
    15    8   31 2
    16    9   26 1
    17    9   27 1
    18    9   28 1
    19   10   16 1
    20   11   13 1
    21   11   17 1
    22   12   15 1
    23   12   17 1
    24   13   25 1
    25   14   16 1
    26   14   24 1
    27   15   25 1
    28   16   18 1
    29   17   19 1
    30   20   21 1
    31   20   22 1
    32   21   23 1
    33   22   28 1
    34   23   29 1
    35   29   35 1
    36   32   35 2
    37   33   35 2
    38    1   36 1
    39    2   37 1
    40    3   38 1
    41   10   39 1
    42   10   40 1
    43   11   41 1
    44   11   42 1
    45   12   43 1
    46   12   44 1
    47   13   45 1
    48   13   46 1
    49   14   47 1
    50   14   48 1
    51   15   49 1
    52   16   50 1
    53   17   51 1
    54   18   52 1
    55   18   53 1
    56   18   54 1
    57   19   55 1
    58   19   56 1
    59   19   57 1
    60   20   58 1
    61   20   59 1
    62   21   60 1
    63   21   61 1
    64   22   62 1
    65   22   63 1
    66   23   64 1
    67   24   65 1
    68   26   66 1
    69   26   67 1
    70   27   68 1
    71   27   69 1
    72   28   70 1
    73   29   71 1
    74   34   72 1
@<TRIPOS>MOLECULE
1dwc_ligand_394
   72    74     0     0     0
SMALL
USER_CHARGES

mmff94s_NoEstat = 84.72
@<TRIPOS>ATOM
      1 C1         -1.4167   -4.0969    7.4880 C.ar      1 <0>        -0.1945
      2 C2         -1.3782   -2.9116    8.2194 C.ar      1 <0>        -0.0294
      3 C3         -1.8193   -4.0774    6.1560 C.ar      1 <0>        -0.0143
      4 C4         -1.7393   -1.6967    7.6196 C.ar      1 <0>        -0.1552
      5 C5         -2.1757   -1.6726    6.2800 C.ar      1 <0>         0.3076
      6 C6         -2.1929   -2.8737    5.5561 C.ar      1 <0>        -0.4908
      7 C7          2.0323   -3.0842    5.9821 C.2       1 <0>         0.5994
      8 C8          0.8654   -1.4427    3.2413 C.2       1 <0>         0.6462
      9 C9          2.8571   -3.2799   -1.0245 C.cat     1 <0>         0.6305
     10 C10        -1.6986   -0.4229    8.4294 C.3       1 <0>        -0.0319
     11 C11         3.0911    0.4998    5.4298 C.3       1 <0>        -0.0918
     12 C12         1.5534   -0.8369    6.8842 C.3       1 <0>        -0.0841
     13 C13         2.8818   -0.5022    4.3015 C.3       1 <0>         0.0870
     14 C14        -2.7014    0.7278    6.4404 C.3       1 <0>         0.2023
     15 C15         1.2754   -1.7924    5.7207 C.3       1 <0>         0.0778
     16 C16        -1.6211    0.8160    7.5233 C.3       1 <0>        -0.0746
     17 C17         2.9339   -0.1724    6.7962 C.3       1 <0>        -0.0681
     18 C18        -1.7676    2.0967    8.3404 C.3       1 <0>        -0.0944
     19 C19         3.1216    0.8403    7.9242 C.3       1 <0>        -0.0918
     20 C20         1.7689   -4.0083    2.0091 C.3       1 <0>        -0.1192
     21 C21         0.3004   -3.5693    2.0376 C.3       1 <0>        -0.0916
     22 C22         2.0958   -4.8429    0.7769 C.3       1 <0>         0.1883
     23 C23        -0.0078   -2.6730    3.2260 C.3       1 <0>         0.1952
     24 N1         -2.5388   -0.4838    5.6592 N.pl3     1 <0>        -0.7670
     25 N2          1.5999   -1.2067    4.4091 N.am      1 <0>        -0.4509
     26 N3          2.6214   -2.5784   -2.2023 N.pl3     1 <0>        -0.8477
     27 N4          4.0963   -3.1655   -0.4037 N.pl3     1 <0>        -0.8633
     28 N5          1.8751   -4.0962   -0.4532 N.pl3     1 <0>        -0.7419
     29 N6         -1.3760   -2.1385    3.1042 N.pl3     1 <0>        -0.8860
     30 O1          3.1450   -3.3455    5.5497 O.2       1 <0>        -0.5199
     31 O2          0.8891   -0.7105    2.2483 O.2       1 <0>        -0.6131
     32 O3         -2.6902   -4.3257    3.4539 O.2       1 <0>        -0.6576
     33 O4         -3.8691   -2.1223    3.7357 O.2       1 <0>        -0.6482
     34 O5          1.3022   -3.9170    6.7635 O.3       1 <0>        -0.6303
     35 S1         -2.6746   -2.9347    3.8647 S.o2      1 <0>         1.5193
     36 H1         -1.1294   -5.0344    7.9561 H         1 <0>         0.1426
     37 H2         -1.0595   -2.9358    9.2588 H         1 <0>         0.1398
     38 H3         -1.8474   -4.9936    5.5747 H         1 <0>         0.1599
     39 H4         -2.6003   -0.3825    9.0536 H         1 <0>         0.0574
     40 H5         -0.8290   -0.4326    9.0980 H         1 <0>         0.0629
     41 H6          4.0885    0.9467    5.3426 H         1 <0>         0.0614
     42 H7          2.3630    1.3153    5.3324 H         1 <0>         0.0593
     43 H8          0.7851   -0.0517    6.8776 H         1 <0>         0.0841
     44 H9          1.4567   -1.3607    7.8437 H         1 <0>         0.0679
     45 H10         2.9560    0.0148    3.3392 H         1 <0>         0.0826
     46 H11         3.6704   -1.2643    4.3172 H         1 <0>         0.0383
     47 H12        -3.7013    0.7380    6.8917 H         1 <0>         0.0556
     48 H13        -2.6389    1.5936    5.7717 H         1 <0>         0.0415
     49 H14         0.2160   -2.0663    5.7460 H         1 <0>         0.0851
     50 H15        -0.6364    0.8362    7.0371 H         1 <0>         0.0639
     51 H16         3.7104   -0.9392    6.9078 H         1 <0>         0.0584
     52 H17        -1.4722    2.9671    7.7470 H         1 <0>         0.0401
     53 H18        -2.8055    2.2330    8.6588 H         1 <0>         0.0440
     54 H19        -1.1357    2.0577    9.2327 H         1 <0>         0.0459
     55 H20         2.2527    0.8404    8.5891 H         1 <0>         0.0456
     56 H21         4.0086    0.5961    8.5164 H         1 <0>         0.0366
     57 H22         3.2450    1.8489    7.5186 H         1 <0>         0.0474
     58 H23         2.4156   -3.1229    2.0318 H         1 <0>         0.0800
     59 H24         1.9949   -4.6013    2.9028 H         1 <0>         0.0681
     60 H25        -0.3448   -4.4577    2.0448 H         1 <0>         0.0740
     61 H26         0.0666   -3.0218    1.1158 H         1 <0>         0.0631
     62 H27         1.4860   -5.7513    0.7413 H         1 <0>         0.0970
     63 H28         3.1484   -5.1425    0.7970 H         1 <0>         0.0725
     64 H29         0.1003   -3.1895    4.1787 H         1 <0>         0.0839
     65 H30        -2.9169   -0.5266    4.7209 H         1 <0>         0.4531
     66 H31         1.7321   -2.6330   -2.6917 H         1 <0>         0.4798
     67 H32         3.3414   -1.9873   -2.6114 H         1 <0>         0.4881
     68 H33         4.3022   -3.6645    0.4583 H         1 <0>         0.4801
     69 H34         4.8291   -2.5786   -0.7952 H         1 <0>         0.4806
     70 H35         0.9755   -4.1600   -0.9320 H         1 <0>         0.4689
     71 H36        -1.4476   -1.1318    2.9219 H         1 <0>         0.4505
     72 H37         1.7734   -4.7586    6.9424 H         1 <0>         0.4443
@<TRIPOS>BOND
     1    1    2 ar
     2    1    3 ar
     3    2    4 ar
     4    3    6 ar
     5    4    5 ar
     6    4   10 1
     7    5    6 ar
     8    5   24 1
     9    6   35 1
    10    7   15 1
    11    7   30 2
    12    7   34 1
    13    8   23 1
    14    8   25 am
    15    8   31 2
    16    9   26 1
    17    9   27 1
    18    9   28 1
    19   10   16 1
    20   11   13 1
    21   11   17 1
    22   12   15 1
    23   12   17 1
    24   13   25 1
    25   14   16 1
    26   14   24 1
    27   15   25 1
    28   16   18 1
    29   17   19 1
    30   20   21 1
    31   20   22 1
    32   21   23 1
    33   22   28 1
    34   23   29 1
    35   29   35 1
    36   32   35 2
    37   33   35 2
    38    1   36 1
    39    2   37 1
    40    3   38 1
    41   10   39 1
    42   10   40 1
    43   11   41 1
    44   11   42 1
    45   12   43 1
    46   12   44 1
    47   13   45 1
    48   13   46 1
    49   14   47 1
    50   14   48 1
    51   15   49 1
    52   16   50 1
    53   17   51 1
    54   18   52 1
    55   18   53 1
    56   18   54 1
    57   19   55 1
    58   19   56 1
    59   19   57 1
    60   20   58 1
    61   20   59 1
    62   21   60 1
    63   21   61 1
    64   22   62 1
    65   22   63 1
    66   23   64 1
    67   24   65 1
    68   26   66 1
    69   26   67 1
    70   27   68 1
    71   27   69 1
    72   28   70 1
    73   29   71 1
    74   34   72 1
@<TRIPOS>MOLECULE
1dwc_ligand_395
   72    74     0     0     0
SMALL
USER_CHARGES

mmff94s_NoEstat = 84.81
@<TRIPOS>ATOM
      1 C1         -0.5523    1.6744    5.9041 C.ar      1 <0>        -0.1945
      2 C2         -0.9694    2.6552    5.0066 C.ar      1 <0>        -0.0294
      3 C3         -0.9569    0.3546    5.7269 C.ar      1 <0>        -0.0143
      4 C4         -1.7923    2.3195    3.9220 C.ar      1 <0>        -0.1552
      5 C5         -2.2299    0.9909    3.7521 C.ar      1 <0>         0.3076
      6 C6         -1.7869    0.0155    4.6571 C.ar      1 <0>        -0.4908
      7 C7          2.5084    0.3236    5.6389 C.2       1 <0>         0.5994
      8 C8          0.8654   -1.4427    3.2413 C.2       1 <0>         0.6462
      9 C9         -3.6509   -3.5619    0.2918 C.cat     1 <0>         0.6305
     10 C10        -2.2407    3.3967    2.9635 C.3       1 <0>        -0.0319
     11 C11         3.7918   -3.1079    4.7178 C.3       1 <0>        -0.0918
     12 C12         4.3679   -0.6960    4.3756 C.3       1 <0>        -0.0841
     13 C13         2.3136   -2.7413    4.7550 C.3       1 <0>         0.0870
     14 C14        -3.6561    1.6489    1.8554 C.3       1 <0>         0.2023
     15 C15         2.8792   -0.3425    4.3241 C.3       1 <0>         0.0778
     16 C16        -2.6763    2.8021    1.6150 C.3       1 <0>        -0.0746
     17 C17         4.6572   -1.9474    5.2154 C.3       1 <0>        -0.0681
     18 C18        -3.2993    3.8738    0.7246 C.3       1 <0>        -0.0944
     19 C19         6.1396   -2.3107    5.1549 C.3       1 <0>        -0.0918
     20 C20        -0.5404   -4.8511    2.0458 C.3       1 <0>        -0.1192
     21 C21         0.3004   -3.5693    2.0376 C.3       1 <0>        -0.0916
     22 C22        -2.0309   -4.5619    1.9177 C.3       1 <0>         0.1883
     23 C23        -0.0078   -2.6730    3.2260 C.3       1 <0>         0.1952
     24 N1         -3.0449    0.6290    2.6865 N.pl3     1 <0>        -0.7670
     25 N2          2.0252   -1.5038    4.0223 N.am      1 <0>        -0.4509
     26 N3         -3.9214   -2.9120   -0.9079 N.pl3     1 <0>        -0.8477
     27 N4         -4.7056   -3.8972    1.1340 N.pl3     1 <0>        -0.8633
     28 N5         -2.3424   -3.8843    0.6674 N.pl3     1 <0>        -0.7419
     29 N6         -1.3760   -2.1385    3.1042 N.pl3     1 <0>        -0.8860
     30 O1          2.0403   -0.2521    6.6099 O.2       1 <0>        -0.5199
     31 O2          0.5240   -0.4555    2.5844 O.2       1 <0>        -0.6131
     32 O3         -1.7140   -2.3916    5.6449 O.2       1 <0>        -0.6576
     33 O4         -3.6601   -1.7094    4.2056 O.2       1 <0>        -0.6482
     34 O5          2.7656    1.6536    5.5910 O.3       1 <0>        -0.6303
     35 S1         -2.2397   -1.6774    4.4970 S.o2      1 <0>         1.5193
     36 H1          0.0908    1.9391    6.7389 H         1 <0>         0.1426
     37 H2         -0.6459    3.6833    5.1512 H         1 <0>         0.1398
     38 H3         -0.6333   -0.4189    6.4161 H         1 <0>         0.1599
     39 H4         -3.0724    3.9441    3.4249 H         1 <0>         0.0574
     40 H5         -1.4243    4.1094    2.7937 H         1 <0>         0.0629
     41 H6          3.9641   -3.9977    5.3349 H         1 <0>         0.0614
     42 H7          4.0768   -3.3683    3.6904 H         1 <0>         0.0593
     43 H8          4.7163   -0.8743    3.3490 H         1 <0>         0.0841
     44 H9          4.9510    0.1500    4.7611 H         1 <0>         0.0679
     45 H10         1.7240   -3.5716    4.3527 H         1 <0>         0.0826
     46 H11         1.9849   -2.5868    5.7898 H         1 <0>         0.0383
     47 H12        -4.5696    2.0142    2.3409 H         1 <0>         0.0556
     48 H13        -3.9536    1.1996    0.9014 H         1 <0>         0.0415
     49 H14         2.7341    0.4259    3.5582 H         1 <0>         0.0851
     50 H15        -1.7894    2.4087    1.1001 H         1 <0>         0.0639
     51 H16         4.4098   -1.7422    6.2643 H         1 <0>         0.0584
     52 H17        -3.3831    3.5161   -0.3060 H         1 <0>         0.0401
     53 H18        -4.3001    4.1356    1.0809 H         1 <0>         0.0440
     54 H19        -2.6852    4.7793    0.7260 H         1 <0>         0.0459
     55 H20         6.6929   -1.5714    4.5681 H         1 <0>         0.0456
     56 H21         6.5688   -2.3436    6.1607 H         1 <0>         0.0366
     57 H22         6.2762   -3.2916    4.6898 H         1 <0>         0.0474
     58 H23        -0.2231   -5.5016    1.2219 H         1 <0>         0.0800
     59 H24        -0.3698   -5.3992    2.9795 H         1 <0>         0.0681
     60 H25         0.1357   -3.0322    1.0943 H         1 <0>         0.0740
     61 H26         1.3654   -3.8328    2.0643 H         1 <0>         0.0631
     62 H27        -2.3852   -3.9376    2.7441 H         1 <0>         0.0970
     63 H28        -2.5962   -5.4991    1.9351 H         1 <0>         0.0725
     64 H29         0.1003   -3.1895    4.1787 H         1 <0>         0.0839
     65 H30        -3.3945   -0.3205    2.6487 H         1 <0>         0.4531
     66 H31        -3.1828   -2.6459   -1.5536 H         1 <0>         0.4798
     67 H32        -4.8760   -2.6807   -1.1731 H         1 <0>         0.4881
     68 H33        -4.5434   -4.3726    2.0184 H         1 <0>         0.4801
     69 H34        -5.6673   -3.6767    0.8868 H         1 <0>         0.4806
     70 H35        -1.5893   -3.6253    0.0283 H         1 <0>         0.4689
     71 H36        -1.6042   -1.6955    2.2078 H         1 <0>         0.4505
     72 H37         2.5309    2.1027    6.4310 H         1 <0>         0.4443
@<TRIPOS>BOND
     1    1    2 ar
     2    1    3 ar
     3    2    4 ar
     4    3    6 ar
     5    4    5 ar
     6    4   10 1
     7    5    6 ar
     8    5   24 1
     9    6   35 1
    10    7   15 1
    11    7   30 2
    12    7   34 1
    13    8   23 1
    14    8   25 am
    15    8   31 2
    16    9   26 1
    17    9   27 1
    18    9   28 1
    19   10   16 1
    20   11   13 1
    21   11   17 1
    22   12   15 1
    23   12   17 1
    24   13   25 1
    25   14   16 1
    26   14   24 1
    27   15   25 1
    28   16   18 1
    29   17   19 1
    30   20   21 1
    31   20   22 1
    32   21   23 1
    33   22   28 1
    34   23   29 1
    35   29   35 1
    36   32   35 2
    37   33   35 2
    38    1   36 1
    39    2   37 1
    40    3   38 1
    41   10   39 1
    42   10   40 1
    43   11   41 1
    44   11   42 1
    45   12   43 1
    46   12   44 1
    47   13   45 1
    48   13   46 1
    49   14   47 1
    50   14   48 1
    51   15   49 1
    52   16   50 1
    53   17   51 1
    54   18   52 1
    55   18   53 1
    56   18   54 1
    57   19   55 1
    58   19   56 1
    59   19   57 1
    60   20   58 1
    61   20   59 1
    62   21   60 1
    63   21   61 1
    64   22   62 1
    65   22   63 1
    66   23   64 1
    67   24   65 1
    68   26   66 1
    69   26   67 1
    70   27   68 1
    71   27   69 1
    72   28   70 1
    73   29   71 1
    74   34   72 1
@<TRIPOS>MOLECULE
1dwc_ligand_396
   72    74     0     0     0
SMALL
USER_CHARGES

mmff94s_NoEstat = 84.82
@<TRIPOS>ATOM
      1 C1         -0.5523    1.6744    5.9041 C.ar      1 <0>        -0.1945
      2 C2         -0.9694    2.6552    5.0066 C.ar      1 <0>        -0.0294
      3 C3         -0.9569    0.3546    5.7269 C.ar      1 <0>        -0.0143
      4 C4         -1.7923    2.3195    3.9220 C.ar      1 <0>        -0.1552
      5 C5         -2.2299    0.9909    3.7521 C.ar      1 <0>         0.3076
      6 C6         -1.7869    0.0155    4.6571 C.ar      1 <0>        -0.4908
      7 C7          2.5084    0.3236    5.6389 C.2       1 <0>         0.5994
      8 C8          0.8654   -1.4427    3.2413 C.2       1 <0>         0.6462
      9 C9          1.4604   -6.7192    4.6765 C.cat     1 <0>         0.6305
     10 C10        -2.2407    3.3967    2.9635 C.3       1 <0>        -0.0319
     11 C11         3.7918   -3.1079    4.7178 C.3       1 <0>        -0.0918
     12 C12         4.3679   -0.6960    4.3756 C.3       1 <0>        -0.0841
     13 C13         2.3136   -2.7413    4.7550 C.3       1 <0>         0.0870
     14 C14        -3.6561    1.6489    1.8554 C.3       1 <0>         0.2023
     15 C15         2.8792   -0.3425    4.3241 C.3       1 <0>         0.0778
     16 C16        -2.6763    2.8021    1.6150 C.3       1 <0>        -0.0746
     17 C17         4.6572   -1.9474    5.2154 C.3       1 <0>        -0.0681
     18 C18        -3.2993    3.8738    0.7246 C.3       1 <0>        -0.0944
     19 C19         6.1396   -2.3107    5.1549 C.3       1 <0>        -0.0918
     20 C20        -0.5404   -4.8511    2.0458 C.3       1 <0>        -0.1192
     21 C21         0.3004   -3.5693    2.0376 C.3       1 <0>        -0.0916
     22 C22        -0.3597   -5.6492    3.3311 C.3       1 <0>         0.1883
     23 C23        -0.0078   -2.6730    3.2260 C.3       1 <0>         0.1952
     24 N1         -3.0449    0.6290    2.6865 N.pl3     1 <0>        -0.7670
     25 N2          2.0252   -1.5038    4.0223 N.am      1 <0>        -0.4509
     26 N3          2.7946   -7.0727    4.8490 N.pl3     1 <0>        -0.8477
     27 N4          0.5364   -7.0602    5.6583 N.pl3     1 <0>        -0.8633
     28 N5          1.0303   -6.0293    3.5380 N.pl3     1 <0>        -0.7419
     29 N6         -1.3760   -2.1385    3.1042 N.pl3     1 <0>        -0.8860
     30 O1          1.6182   -0.0497    6.3883 O.2       1 <0>        -0.5199
     31 O2          0.5240   -0.4555    2.5844 O.2       1 <0>        -0.6131
     32 O3         -1.7140   -2.3916    5.6449 O.2       1 <0>        -0.6576
     33 O4         -3.6601   -1.7094    4.2056 O.2       1 <0>        -0.6482
     34 O5          3.3013    1.3981    5.8715 O.3       1 <0>        -0.6303
     35 S1         -2.2397   -1.6774    4.4970 S.o2      1 <0>         1.5193
     36 H1          0.0908    1.9391    6.7389 H         1 <0>         0.1426
     37 H2         -0.6459    3.6833    5.1512 H         1 <0>         0.1398
     38 H3         -0.6333   -0.4189    6.4161 H         1 <0>         0.1599
     39 H4         -3.0724    3.9441    3.4249 H         1 <0>         0.0574
     40 H5         -1.4243    4.1094    2.7937 H         1 <0>         0.0629
     41 H6          3.9641   -3.9977    5.3349 H         1 <0>         0.0614
     42 H7          4.0768   -3.3683    3.6904 H         1 <0>         0.0593
     43 H8          4.7163   -0.8743    3.3490 H         1 <0>         0.0841
     44 H9          4.9510    0.1500    4.7611 H         1 <0>         0.0679
     45 H10         1.7240   -3.5716    4.3527 H         1 <0>         0.0826
     46 H11         1.9849   -2.5868    5.7898 H         1 <0>         0.0383
     47 H12        -4.5696    2.0142    2.3409 H         1 <0>         0.0556
     48 H13        -3.9536    1.1996    0.9014 H         1 <0>         0.0415
     49 H14         2.7341    0.4259    3.5582 H         1 <0>         0.0851
     50 H15        -1.7894    2.4087    1.1001 H         1 <0>         0.0639
     51 H16         4.4098   -1.7422    6.2643 H         1 <0>         0.0584
     52 H17        -3.3831    3.5161   -0.3060 H         1 <0>         0.0401
     53 H18        -4.3001    4.1356    1.0809 H         1 <0>         0.0440
     54 H19        -2.6852    4.7793    0.7260 H         1 <0>         0.0459
     55 H20         6.6929   -1.5714    4.5681 H         1 <0>         0.0456
     56 H21         6.5688   -2.3436    6.1607 H         1 <0>         0.0366
     57 H22         6.2762   -3.2916    4.6898 H         1 <0>         0.0474
     58 H23        -1.5993   -4.5943    1.9218 H         1 <0>         0.0800
     59 H24        -0.2563   -5.4850    1.1980 H         1 <0>         0.0681
     60 H25         0.1357   -3.0322    1.0943 H         1 <0>         0.0740
     61 H26         1.3654   -3.8328    2.0643 H         1 <0>         0.0631
     62 H27        -0.9667   -6.5601    3.3198 H         1 <0>         0.0970
     63 H28        -0.6690   -5.0471    4.1914 H         1 <0>         0.0725
     64 H29         0.1003   -3.1895    4.1787 H         1 <0>         0.0839
     65 H30        -3.3945   -0.3205    2.6487 H         1 <0>         0.4531
     66 H31         3.5044   -6.8463    4.1574 H         1 <0>         0.4798
     67 H32         3.0989   -7.5750    5.6798 H         1 <0>         0.4881
     68 H33        -0.4468   -6.8174    5.5641 H         1 <0>         0.4801
     69 H34         0.8200   -7.5607    6.4972 H         1 <0>         0.4806
     70 H35         1.7319   -5.7928    2.8348 H         1 <0>         0.4689
     71 H36        -1.6042   -1.6955    2.2078 H         1 <0>         0.4505
     72 H37         3.0762    1.8437    6.7159 H         1 <0>         0.4443
@<TRIPOS>BOND
     1    1    2 ar
     2    1    3 ar
     3    2    4 ar
     4    3    6 ar
     5    4    5 ar
     6    4   10 1
     7    5    6 ar
     8    5   24 1
     9    6   35 1
    10    7   15 1
    11    7   30 2
    12    7   34 1
    13    8   23 1
    14    8   25 am
    15    8   31 2
    16    9   26 1
    17    9   27 1
    18    9   28 1
    19   10   16 1
    20   11   13 1
    21   11   17 1
    22   12   15 1
    23   12   17 1
    24   13   25 1
    25   14   16 1
    26   14   24 1
    27   15   25 1
    28   16   18 1
    29   17   19 1
    30   20   21 1
    31   20   22 1
    32   21   23 1
    33   22   28 1
    34   23   29 1
    35   29   35 1
    36   32   35 2
    37   33   35 2
    38    1   36 1
    39    2   37 1
    40    3   38 1
    41   10   39 1
    42   10   40 1
    43   11   41 1
    44   11   42 1
    45   12   43 1
    46   12   44 1
    47   13   45 1
    48   13   46 1
    49   14   47 1
    50   14   48 1
    51   15   49 1
    52   16   50 1
    53   17   51 1
    54   18   52 1
    55   18   53 1
    56   18   54 1
    57   19   55 1
    58   19   56 1
    59   19   57 1
    60   20   58 1
    61   20   59 1
    62   21   60 1
    63   21   61 1
    64   22   62 1
    65   22   63 1
    66   23   64 1
    67   24   65 1
    68   26   66 1
    69   26   67 1
    70   27   68 1
    71   27   69 1
    72   28   70 1
    73   29   71 1
    74   34   72 1
@<TRIPOS>MOLECULE
1dwc_ligand_397
   72    74     0     0     0
SMALL
USER_CHARGES

mmff94s_NoEstat = 84.87
@<TRIPOS>ATOM
      1 C1         -0.4870   -4.5759    0.1636 C.ar      1 <0>        -0.1945
      2 C2          0.3882   -5.3449    0.9279 C.ar      1 <0>        -0.0294
      3 C3         -0.0840   -4.0945   -1.0785 C.ar      1 <0>        -0.0143
      4 C4          1.6731   -5.6407    0.4508 C.ar      1 <0>        -0.1552
      5 C5          2.0990   -5.1329   -0.7928 C.ar      1 <0>         0.3076
      6 C6          1.1982   -4.3739   -1.5539 C.ar      1 <0>        -0.4908
      7 C7          2.6281   -1.3042    2.5638 C.2       1 <0>         0.5994
      8 C8          2.9466   -1.3973   -0.6457 C.2       1 <0>         0.6462
      9 C9          6.8021   -5.4466   -4.4355 C.cat     1 <0>         0.6305
     10 C10         2.6110   -6.4693    1.2956 C.3       1 <0>        -0.0319
     11 C11         5.7543   -2.0741    1.7663 C.3       1 <0>        -0.0918
     12 C12         4.6161    0.1433    2.3333 C.3       1 <0>        -0.0841
     13 C13         5.2430   -1.7129    0.3758 C.3       1 <0>         0.0870
     14 C14         4.3643   -6.0331   -0.4427 C.3       1 <0>         0.2023
     15 C15         3.4337   -0.4666    1.5844 C.3       1 <0>         0.0778
     16 C16         3.7208   -7.1047    0.4435 C.3       1 <0>        -0.0746
     17 C17         5.6648   -0.9011    2.7560 C.3       1 <0>        -0.0681
     18 C18         4.7636   -7.7830    1.3277 C.3       1 <0>        -0.0944
     19 C19         7.0265   -0.2323    2.9523 C.3       1 <0>        -0.0918
     20 C20         5.1203   -2.1076   -3.7746 C.3       1 <0>        -0.1192
     21 C21         4.5564   -1.3488   -2.5679 C.3       1 <0>        -0.0916
     22 C22         5.6479   -3.4850   -3.3924 C.3       1 <0>         0.1883
     23 C23         3.4544   -2.1251   -1.8653 C.3       1 <0>         0.1952
     24 N1          3.3660   -5.4103   -1.2913 N.pl3     1 <0>        -0.7670
     25 N2          3.8547   -1.2301    0.4039 N.am      1 <0>        -0.4509
     26 N3          7.3239   -6.0965   -5.5492 N.pl3     1 <0>        -0.8477
     27 N4          6.8782   -6.0650   -3.1922 N.pl3     1 <0>        -0.8633
     28 N5          6.2038   -4.1863   -4.5407 N.pl3     1 <0>        -0.7419
     29 N6          2.2741   -2.2179   -2.7432 N.pl3     1 <0>        -0.8860
     30 O1          2.1401   -0.8907    3.6051 O.2       1 <0>        -0.5199
     31 O2          1.7818   -0.9917   -0.6208 O.2       1 <0>        -0.6131
     32 O3          2.6686   -4.5798   -3.6918 O.2       1 <0>        -0.6576
     33 O4          0.3811   -3.5494   -3.8650 O.2       1 <0>        -0.6482
     34 O5          2.5235   -2.5830    2.1269 O.3       1 <0>        -0.6303
     35 S1          1.6226   -3.7401   -3.1398 S.o2      1 <0>         1.5193
     36 H1         -1.4838   -4.3554    0.5354 H         1 <0>         0.1426
     37 H2          0.0637   -5.7192    1.8959 H         1 <0>         0.1398
     38 H3         -0.7593   -3.4996   -1.6852 H         1 <0>         0.1599
     39 H4          3.0465   -5.8195    2.0653 H         1 <0>         0.0574
     40 H5          2.0518   -7.2634    1.8055 H         1 <0>         0.0629
     41 H6          5.1450   -2.9020    2.1525 H         1 <0>         0.0614
     42 H7          6.7810   -2.4531    1.7029 H         1 <0>         0.0593
     43 H8          5.0903    0.8874    1.6785 H         1 <0>         0.0841
     44 H9          4.2733    0.6894    3.2215 H         1 <0>         0.0679
     45 H10         5.8537   -0.9171   -0.0665 H         1 <0>         0.0826
     46 H11         5.3167   -2.5850   -0.2811 H         1 <0>         0.0383
     47 H12         4.8493   -5.2648    0.1722 H         1 <0>         0.0556
     48 H13         5.1400   -6.4799   -1.0745 H         1 <0>         0.0415
     49 H14         2.7622    0.3365    1.2577 H         1 <0>         0.0851
     50 H15         3.2738   -7.8730   -0.2019 H         1 <0>         0.0639
     51 H16         5.3768   -1.3130    3.7317 H         1 <0>         0.0584
     52 H17         5.4090   -8.4341    0.7304 H         1 <0>         0.0401
     53 H18         5.3914   -7.0367    1.8236 H         1 <0>         0.0440
     54 H19         4.2783   -8.3911    2.0970 H         1 <0>         0.0459
     55 H20         7.5288   -0.6354    3.8367 H         1 <0>         0.0456
     56 H21         7.6683   -0.4045    2.0831 H         1 <0>         0.0366
     57 H22         6.9087    0.8473    3.0852 H         1 <0>         0.0474
     58 H23         4.3389   -2.2150   -4.5365 H         1 <0>         0.0800
     59 H24         5.9381   -1.5325   -4.2238 H         1 <0>         0.0681
     60 H25         4.1906   -0.3664   -2.8945 H         1 <0>         0.0740
     61 H26         5.3633   -1.1575   -1.8491 H         1 <0>         0.0631
     62 H27         4.8565   -4.1061   -2.9610 H         1 <0>         0.0970
     63 H28         6.4445   -3.3867   -2.6481 H         1 <0>         0.0725
     64 H29         3.7703   -3.1244   -1.5692 H         1 <0>         0.0839
     65 H30         3.6532   -4.9620   -2.1525 H         1 <0>         0.4531
     66 H31         7.2891   -5.6840   -6.4776 H         1 <0>         0.4798
     67 H32         7.7569   -7.0132   -5.4639 H         1 <0>         0.4881
     68 H33         6.5067   -5.6181   -2.3575 H         1 <0>         0.4801
     69 H34         7.3085   -6.9804   -3.0849 H         1 <0>         0.4806
     70 H35         6.1629   -3.7578   -5.4666 H         1 <0>         0.4689
     71 H36         1.6613   -1.3957   -2.7560 H         1 <0>         0.4505
     72 H37         2.0077   -3.1411    2.7472 H         1 <0>         0.4443
@<TRIPOS>BOND
     1    1    2 ar
     2    1    3 ar
     3    2    4 ar
     4    3    6 ar
     5    4    5 ar
     6    4   10 1
     7    5    6 ar
     8    5   24 1
     9    6   35 1
    10    7   15 1
    11    7   30 2
    12    7   34 1
    13    8   23 1
    14    8   25 am
    15    8   31 2
    16    9   26 1
    17    9   27 1
    18    9   28 1
    19   10   16 1
    20   11   13 1
    21   11   17 1
    22   12   15 1
    23   12   17 1
    24   13   25 1
    25   14   16 1
    26   14   24 1
    27   15   25 1
    28   16   18 1
    29   17   19 1
    30   20   21 1
    31   20   22 1
    32   21   23 1
    33   22   28 1
    34   23   29 1
    35   29   35 1
    36   32   35 2
    37   33   35 2
    38    1   36 1
    39    2   37 1
    40    3   38 1
    41   10   39 1
    42   10   40 1
    43   11   41 1
    44   11   42 1
    45   12   43 1
    46   12   44 1
    47   13   45 1
    48   13   46 1
    49   14   47 1
    50   14   48 1
    51   15   49 1
    52   16   50 1
    53   17   51 1
    54   18   52 1
    55   18   53 1
    56   18   54 1
    57   19   55 1
    58   19   56 1
    59   19   57 1
    60   20   58 1
    61   20   59 1
    62   21   60 1
    63   21   61 1
    64   22   62 1
    65   22   63 1
    66   23   64 1
    67   24   65 1
    68   26   66 1
    69   26   67 1
    70   27   68 1
    71   27   69 1
    72   28   70 1
    73   29   71 1
    74   34   72 1
@<TRIPOS>MOLECULE
1dwc_ligand_398
   72    74     0     0     0
SMALL
USER_CHARGES

mmff94s_NoEstat = 84.88
@<TRIPOS>ATOM
      1 C1         -1.4167   -4.0969    7.4880 C.ar      1 <0>        -0.1945
      2 C2         -1.3782   -2.9116    8.2194 C.ar      1 <0>        -0.0294
      3 C3         -1.8193   -4.0774    6.1560 C.ar      1 <0>        -0.0143
      4 C4         -1.7393   -1.6967    7.6196 C.ar      1 <0>        -0.1552
      5 C5         -2.1757   -1.6726    6.2800 C.ar      1 <0>         0.3076
      6 C6         -2.1929   -2.8737    5.5561 C.ar      1 <0>        -0.4908
      7 C7          3.5686   -3.4379    3.7704 C.2       1 <0>         0.5994
      8 C8          0.8654   -1.4427    3.2413 C.2       1 <0>         0.6462
      9 C9         -0.8941   -7.9715   -0.0876 C.cat     1 <0>         0.6305
     10 C10        -1.6986   -0.4229    8.4294 C.3       1 <0>        -0.0319
     11 C11         3.4440   -0.0674    5.4719 C.3       1 <0>        -0.0918
     12 C12         3.1682   -2.4952    6.0163 C.3       1 <0>        -0.0841
     13 C13         2.9000   -0.3276    4.0730 C.3       1 <0>         0.0870
     14 C14        -2.7014    0.7278    6.4404 C.3       1 <0>         0.2023
     15 C15         2.5392   -2.7371    4.6417 C.3       1 <0>         0.0778
     16 C16        -1.6211    0.8160    7.5233 C.3       1 <0>        -0.0746
     17 C17         4.1435   -1.3104    6.0281 C.3       1 <0>        -0.0681
     18 C18        -1.7676    2.0967    8.3404 C.3       1 <0>        -0.0944
     19 C19         4.6673   -1.0527    7.4396 C.3       1 <0>        -0.0918
     20 C20        -0.5404   -4.8511    2.0458 C.3       1 <0>        -0.1192
     21 C21         0.3004   -3.5693    2.0376 C.3       1 <0>        -0.0916
     22 C22        -0.1768   -5.7847    0.8978 C.3       1 <0>         0.1883
     23 C23        -0.0078   -2.6730    3.2260 C.3       1 <0>         0.1952
     24 N1         -2.5388   -0.4838    5.6592 N.pl3     1 <0>        -0.7670
     25 N2          2.0252   -1.5038    4.0223 N.am      1 <0>        -0.4509
     26 N3         -1.6898   -9.1122   -0.0609 N.pl3     1 <0>        -0.8477
     27 N4          0.0239   -7.8094   -1.1196 N.pl3     1 <0>        -0.8633
     28 N5         -0.9984   -6.9865    0.9003 N.pl3     1 <0>        -0.7419
     29 N6         -1.3760   -2.1385    3.1042 N.pl3     1 <0>        -0.8860
     30 O1          4.3335   -2.8779    2.9993 O.2       1 <0>        -0.5199
     31 O2          0.5240   -0.4555    2.5844 O.2       1 <0>        -0.6131
     32 O3         -2.6902   -4.3257    3.4539 O.2       1 <0>        -0.6576
     33 O4         -3.8691   -2.1223    3.7357 O.2       1 <0>        -0.6482
     34 O5          3.5241   -4.7791    3.9616 O.3       1 <0>        -0.6303
     35 S1         -2.6746   -2.9347    3.8647 S.o2      1 <0>         1.5193
     36 H1         -1.1294   -5.0344    7.9561 H         1 <0>         0.1426
     37 H2         -1.0595   -2.9358    9.2588 H         1 <0>         0.1398
     38 H3         -1.8474   -4.9936    5.5747 H         1 <0>         0.1599
     39 H4         -2.6003   -0.3825    9.0536 H         1 <0>         0.0574
     40 H5         -0.8290   -0.4326    9.0980 H         1 <0>         0.0629
     41 H6          4.1435    0.7764    5.4419 H         1 <0>         0.0614
     42 H7          2.6191    0.2214    6.1357 H         1 <0>         0.0593
     43 H8          2.3618   -2.2928    6.7345 H         1 <0>         0.0841
     44 H9          3.6813   -3.3988    6.3690 H         1 <0>         0.0679
     45 H10         2.3679    0.5618    3.7197 H         1 <0>         0.0826
     46 H11         3.7232   -0.5081    3.3711 H         1 <0>         0.0383
     47 H12        -3.7013    0.7380    6.8917 H         1 <0>         0.0556
     48 H13        -2.6389    1.5936    5.7717 H         1 <0>         0.0415
     49 H14         1.7211   -3.4548    4.7590 H         1 <0>         0.0851
     50 H15        -0.6364    0.8362    7.0371 H         1 <0>         0.0639
     51 H16         5.0063   -1.5479    5.3937 H         1 <0>         0.0584
     52 H17        -1.4722    2.9671    7.7470 H         1 <0>         0.0401
     53 H18        -2.8055    2.2330    8.6588 H         1 <0>         0.0440
     54 H19        -1.1357    2.0577    9.2327 H         1 <0>         0.0459
     55 H20         4.2777   -1.8006    8.1367 H         1 <0>         0.0456
     56 H21         5.7602   -1.1000    7.4588 H         1 <0>         0.0366
     57 H22         4.3590   -0.0627    7.7891 H         1 <0>         0.0474
     58 H23        -0.4002   -5.3741    2.9994 H         1 <0>         0.0800
     59 H24        -1.6035   -4.5964    1.9658 H         1 <0>         0.0681
     60 H25         0.1357   -3.0322    1.0943 H         1 <0>         0.0740
     61 H26         1.3654   -3.8328    2.0643 H         1 <0>         0.0631
     62 H27         0.8739   -6.0869    0.9513 H         1 <0>         0.0970
     63 H28        -0.3350   -5.2785   -0.0598 H         1 <0>         0.0725
     64 H29         0.1003   -3.1895    4.1787 H         1 <0>         0.0839
     65 H30        -2.9169   -0.5266    4.7209 H         1 <0>         0.4531
     66 H31        -2.3726   -9.2741    0.6745 H         1 <0>         0.4798
     67 H32        -1.6070   -9.8240   -0.7830 H         1 <0>         0.4881
     68 H33         0.6213   -6.9877   -1.1696 H         1 <0>         0.4801
     69 H34         0.1212   -8.5082   -1.8524 H         1 <0>         0.4806
     70 H35        -1.6814   -7.1337    1.6450 H         1 <0>         0.4689
     71 H36        -1.4476   -1.1318    2.9219 H         1 <0>         0.4505
     72 H37         4.1809   -5.2504    3.4059 H         1 <0>         0.4443
@<TRIPOS>BOND
     1    1    2 ar
     2    1    3 ar
     3    2    4 ar
     4    3    6 ar
     5    4    5 ar
     6    4   10 1
     7    5    6 ar
     8    5   24 1
     9    6   35 1
    10    7   15 1
    11    7   30 2
    12    7   34 1
    13    8   23 1
    14    8   25 am
    15    8   31 2
    16    9   26 1
    17    9   27 1
    18    9   28 1
    19   10   16 1
    20   11   13 1
    21   11   17 1
    22   12   15 1
    23   12   17 1
    24   13   25 1
    25   14   16 1
    26   14   24 1
    27   15   25 1
    28   16   18 1
    29   17   19 1
    30   20   21 1
    31   20   22 1
    32   21   23 1
    33   22   28 1
    34   23   29 1
    35   29   35 1
    36   32   35 2
    37   33   35 2
    38    1   36 1
    39    2   37 1
    40    3   38 1
    41   10   39 1
    42   10   40 1
    43   11   41 1
    44   11   42 1
    45   12   43 1
    46   12   44 1
    47   13   45 1
    48   13   46 1
    49   14   47 1
    50   14   48 1
    51   15   49 1
    52   16   50 1
    53   17   51 1
    54   18   52 1
    55   18   53 1
    56   18   54 1
    57   19   55 1
    58   19   56 1
    59   19   57 1
    60   20   58 1
    61   20   59 1
    62   21   60 1
    63   21   61 1
    64   22   62 1
    65   22   63 1
    66   23   64 1
    67   24   65 1
    68   26   66 1
    69   26   67 1
    70   27   68 1
    71   27   69 1
    72   28   70 1
    73   29   71 1
    74   34   72 1
@<TRIPOS>MOLECULE
1dwc_ligand_399
   72    74     0     0     0
SMALL
USER_CHARGES

mmff94s_NoEstat = 84.88
@<TRIPOS>ATOM
      1 C1         -1.4072   -6.2841    0.5334 C.ar      1 <0>        -0.1945
      2 C2         -0.3050   -6.5010   -0.2908 C.ar      1 <0>        -0.0294
      3 C3         -1.2178   -5.9155    1.8618 C.ar      1 <0>        -0.0143
      4 C4          0.9961   -6.3538    0.2114 C.ar      1 <0>        -0.1552
      5 C5          1.1959   -5.9530    1.5470 C.ar      1 <0>         0.3076
      6 C6          0.0742   -5.7546    2.3651 C.ar      1 <0>        -0.4908
      7 C7          0.0474   -1.6003   -0.0563 C.2       1 <0>         0.5994
      8 C8          0.8654   -1.4427    3.2413 C.2       1 <0>         0.6462
      9 C9         -3.7312   -0.3416    0.0935 C.cat     1 <0>         0.6305
     10 C10         2.1776   -6.5853   -0.6996 C.3       1 <0>        -0.0319
     11 C11         2.7802    0.7752    1.0208 C.3       1 <0>        -0.0918
     12 C12         2.5085   -1.4277   -0.1368 C.3       1 <0>        -0.0841
     13 C13         1.5404    0.4804    1.8554 C.3       1 <0>         0.0870
     14 C14         3.6317   -5.8205    1.2015 C.3       1 <0>         0.2023
     15 C15         1.3165   -1.7600    0.7646 C.3       1 <0>         0.0778
     16 C16         3.4776   -6.8504    0.0772 C.3       1 <0>        -0.0746
     17 C17         2.7020    0.0809   -0.3413 C.3       1 <0>        -0.0681
     18 C18         3.5447   -8.2877    0.6061 C.3       1 <0>        -0.0944
     19 C19         3.9570    0.3602   -1.1659 C.3       1 <0>        -0.0918
     20 C20        -2.1115   -1.2711    3.3990 C.3       1 <0>        -0.1192
     21 C21        -1.3133   -2.4479    3.9716 C.3       1 <0>        -0.0916
     22 C22        -2.5427   -1.5156    1.9582 C.3       1 <0>         0.1883
     23 C23        -0.0078   -2.6730    3.2260 C.3       1 <0>         0.1952
     24 N1          2.4729   -5.8065    2.0741 N.pl3     1 <0>        -0.7670
     25 N2          1.2915   -0.9578    1.9994 N.am      1 <0>        -0.4509
     26 N3         -4.4336    0.7533   -0.3991 N.pl3     1 <0>        -0.8477
     27 N4         -3.4755   -1.4179   -0.7493 N.pl3     1 <0>        -0.8633
     28 N5         -3.2779   -0.3818    1.4164 N.pl3     1 <0>        -0.7419
     29 N6          0.7961   -3.6905    3.9267 N.pl3     1 <0>        -0.8860
     30 O1         -0.6384   -0.5898   -0.0988 O.2       1 <0>        -0.5199
     31 O2          1.1650   -0.9321    4.3240 O.2       1 <0>        -0.6131
     32 O3         -1.1034   -5.2783    4.6370 O.2       1 <0>        -0.6576
     33 O4          1.2668   -6.1189    4.6309 O.2       1 <0>        -0.6482
     34 O5         -0.2271   -2.7383   -0.7395 O.3       1 <0>        -0.6303
     35 S1          0.2254   -5.2894    4.0556 S.o2      1 <0>         1.5193
     36 H1         -2.4130   -6.4058    0.1405 H         1 <0>         0.1426
     37 H2         -0.4624   -6.7916   -1.3268 H         1 <0>         0.1398
     38 H3         -2.0688   -5.7496    2.5150 H         1 <0>         0.1599
     39 H4          1.9762   -7.4254   -1.3755 H         1 <0>         0.0574
     40 H5          2.3035   -5.6869   -1.3173 H         1 <0>         0.0629
     41 H6          2.8818    1.8586    0.8858 H         1 <0>         0.0614
     42 H7          3.6725    0.4327    1.5603 H         1 <0>         0.0593
     43 H8          3.4165   -1.8382    0.3259 H         1 <0>         0.0841
     44 H9          2.4035   -1.9216   -1.1111 H         1 <0>         0.0679
     45 H10         1.6443    0.9520    2.8381 H         1 <0>         0.0826
     46 H11         0.6509    0.9155    1.3839 H         1 <0>         0.0383
     47 H12         4.5279   -6.0341    1.7945 H         1 <0>         0.0556
     48 H13         3.7631   -4.8203    0.7705 H         1 <0>         0.0415
     49 H14         1.3647   -2.8230    1.0210 H         1 <0>         0.0851
     50 H15         4.3197   -6.7370   -0.6165 H         1 <0>         0.0639
     51 H16         1.8454    0.4816   -0.8972 H         1 <0>         0.0584
     52 H17         2.5943   -8.8034    0.4393 H         1 <0>         0.0401
     53 H18         4.3347   -8.8481    0.0972 H         1 <0>         0.0440
     54 H19         3.7555   -8.2927    1.6797 H         1 <0>         0.0459
     55 H20         4.2296   -0.5171   -1.7602 H         1 <0>         0.0456
     56 H21         3.7904    1.1997   -1.8474 H         1 <0>         0.0366
     57 H22         4.7987    0.6086   -0.5125 H         1 <0>         0.0474
     58 H23        -2.9980   -1.0942    4.0198 H         1 <0>         0.0800
     59 H24        -1.5025   -0.3604    3.4316 H         1 <0>         0.0681
     60 H25        -1.9335   -3.3536    3.9489 H         1 <0>         0.0740
     61 H26        -1.0849   -2.2531    5.0271 H         1 <0>         0.0631
     62 H27        -3.1767   -2.4047    1.8804 H         1 <0>         0.0970
     63 H28        -1.6627   -1.6712    1.3260 H         1 <0>         0.0725
     64 H29        -0.1638   -2.9774    2.1921 H         1 <0>         0.0839
     65 H30         2.5644   -5.4443    3.0154 H         1 <0>         0.4531
     66 H31        -4.6452    1.5611    0.1804 H         1 <0>         0.4798
     67 H32        -4.7603    0.7741   -1.3624 H         1 <0>         0.4881
     68 H33        -2.9649   -2.2343   -0.4217 H         1 <0>         0.4801
     69 H34        -3.7917   -1.4164   -1.7161 H         1 <0>         0.4806
     70 H35        -3.4808    0.4232    2.0108 H         1 <0>         0.4689
     71 H36         1.8068   -3.5190    3.9555 H         1 <0>         0.4505
     72 H37        -1.0450   -2.6560   -1.2749 H         1 <0>         0.4443
@<TRIPOS>BOND
     1    1    2 ar
     2    1    3 ar
     3    2    4 ar
     4    3    6 ar
     5    4    5 ar
     6    4   10 1
     7    5    6 ar
     8    5   24 1
     9    6   35 1
    10    7   15 1
    11    7   30 2
    12    7   34 1
    13    8   23 1
    14    8   25 am
    15    8   31 2
    16    9   26 1
    17    9   27 1
    18    9   28 1
    19   10   16 1
    20   11   13 1
    21   11   17 1
    22   12   15 1
    23   12   17 1
    24   13   25 1
    25   14   16 1
    26   14   24 1
    27   15   25 1
    28   16   18 1
    29   17   19 1
    30   20   21 1
    31   20   22 1
    32   21   23 1
    33   22   28 1
    34   23   29 1
    35   29   35 1
    36   32   35 2
    37   33   35 2
    38    1   36 1
    39    2   37 1
    40    3   38 1
    41   10   39 1
    42   10   40 1
    43   11   41 1
    44   11   42 1
    45   12   43 1
    46   12   44 1
    47   13   45 1
    48   13   46 1
    49   14   47 1
    50   14   48 1
    51   15   49 1
    52   16   50 1
    53   17   51 1
    54   18   52 1
    55   18   53 1
    56   18   54 1
    57   19   55 1
    58   19   56 1
    59   19   57 1
    60   20   58 1
    61   20   59 1
    62   21   60 1
    63   21   61 1
    64   22   62 1
    65   22   63 1
    66   23   64 1
    67   24   65 1
    68   26   66 1
    69   26   67 1
    70   27   68 1
    71   27   69 1
    72   28   70 1
    73   29   71 1
    74   34   72 1
@<TRIPOS>MOLECULE
1dwc_ligand_400
   72    74     0     0     0
SMALL
USER_CHARGES

mmff94s_NoEstat = 84.90
@<TRIPOS>ATOM
      1 C1         -1.3865    0.4483    6.9697 C.ar      1 <0>        -0.1945
      2 C2         -0.5343   -0.2259    7.8418 C.ar      1 <0>        -0.0294
      3 C3         -1.9752   -0.2339    5.9091 C.ar      1 <0>        -0.0143
      4 C4         -0.2690   -1.5907    7.6596 C.ar      1 <0>        -0.1552
      5 C5         -0.8382   -2.2818    6.5715 C.ar      1 <0>         0.3076
      6 C6         -1.7052   -1.5894    5.7138 C.ar      1 <0>        -0.4908
      7 C7          2.5084    0.3236    5.6389 C.2       1 <0>         0.5994
      8 C8          0.8654   -1.4427    3.2413 C.2       1 <0>         0.6462
      9 C9         -0.0382   -5.7761   -1.6019 C.cat     1 <0>         0.6305
     10 C10         0.6628   -2.3037    8.6102 C.3       1 <0>        -0.0319
     11 C11         3.7918   -3.1079    4.7178 C.3       1 <0>        -0.0918
     12 C12         4.3679   -0.6960    4.3756 C.3       1 <0>        -0.0841
     13 C13         2.3136   -2.7413    4.7550 C.3       1 <0>         0.0870
     14 C14         0.4361   -4.3139    7.1291 C.3       1 <0>         0.2023
     15 C15         2.8792   -0.3425    4.3241 C.3       1 <0>         0.0778
     16 C16         0.4391   -3.8238    8.5808 C.3       1 <0>        -0.0746
     17 C17         4.6572   -1.9474    5.2154 C.3       1 <0>        -0.0681
     18 C18         1.5050   -4.5457    9.4006 C.3       1 <0>        -0.0944
     19 C19         6.1396   -2.3107    5.1549 C.3       1 <0>        -0.0918
     20 C20        -0.5404   -4.8511    2.0458 C.3       1 <0>        -0.1192
     21 C21         0.3004   -3.5693    2.0376 C.3       1 <0>        -0.0916
     22 C22        -0.1768   -5.7847    0.8978 C.3       1 <0>         0.1883
     23 C23        -0.0078   -2.6730    3.2260 C.3       1 <0>         0.1952
     24 N1         -0.5939   -3.6341    6.3665 N.pl3     1 <0>        -0.7670
     25 N2          2.0252   -1.5038    4.0223 N.am      1 <0>        -0.4509
     26 N3         -0.2239   -5.1414   -2.8257 N.pl3     1 <0>        -0.8477
     27 N4          0.4773   -7.0675   -1.5794 N.pl3     1 <0>        -0.8633
     28 N5         -0.3589   -5.1430   -0.3963 N.pl3     1 <0>        -0.7419
     29 N6         -1.3760   -2.1385    3.1042 N.pl3     1 <0>        -0.8860
     30 O1          2.0403   -0.2521    6.6099 O.2       1 <0>        -0.5199
     31 O2          0.5240   -0.4555    2.5844 O.2       1 <0>        -0.6131
     32 O3         -2.5906   -3.7967    4.6561 O.2       1 <0>        -0.6576
     33 O4         -3.7019   -1.6181    4.0705 O.2       1 <0>        -0.6482
     34 O5          2.7656    1.6536    5.5910 O.3       1 <0>        -0.6303
     35 S1         -2.5018   -2.3799    4.3583 S.o2      1 <0>         1.5193
     36 H1         -1.5937    1.5043    7.1196 H         1 <0>         0.1426
     37 H2         -0.0811    0.3144    8.6695 H         1 <0>         0.1398
     38 H3         -2.6454    0.2794    5.2269 H         1 <0>         0.1599
     39 H4          1.6952   -2.0650    8.3246 H         1 <0>         0.0574
     40 H5          0.5054   -1.9381    9.6324 H         1 <0>         0.0629
     41 H6          3.9641   -3.9977    5.3349 H         1 <0>         0.0614
     42 H7          4.0768   -3.3683    3.6904 H         1 <0>         0.0593
     43 H8          4.7163   -0.8743    3.3490 H         1 <0>         0.0841
     44 H9          4.9510    0.1500    4.7611 H         1 <0>         0.0679
     45 H10         1.7240   -3.5716    4.3527 H         1 <0>         0.0826
     46 H11         1.9849   -2.5868    5.7898 H         1 <0>         0.0383
     47 H12         1.4122   -4.1368    6.6605 H         1 <0>         0.0556
     48 H13         0.2510   -5.3933    7.0942 H         1 <0>         0.0415
     49 H14         2.7341    0.4259    3.5582 H         1 <0>         0.0851
     50 H15        -0.5391   -4.0450    9.0289 H         1 <0>         0.0639
     51 H16         4.4098   -1.7422    6.2643 H         1 <0>         0.0584
     52 H17         1.2125   -5.5843    9.5819 H         1 <0>         0.0401
     53 H18         2.4629   -4.5449    8.8719 H         1 <0>         0.0440
     54 H19         1.6448   -4.0535   10.3677 H         1 <0>         0.0459
     55 H20         6.6929   -1.5714    4.5681 H         1 <0>         0.0456
     56 H21         6.5688   -2.3436    6.1607 H         1 <0>         0.0366
     57 H22         6.2762   -3.2916    4.6898 H         1 <0>         0.0474
     58 H23        -0.4002   -5.3741    2.9994 H         1 <0>         0.0800
     59 H24        -1.6035   -4.5964    1.9658 H         1 <0>         0.0681
     60 H25         0.1357   -3.0322    1.0943 H         1 <0>         0.0740
     61 H26         1.3654   -3.8328    2.0643 H         1 <0>         0.0631
     62 H27        -0.7862   -6.6937    0.9190 H         1 <0>         0.0970
     63 H28         0.8744   -6.0800    0.9749 H         1 <0>         0.0725
     64 H29         0.1003   -3.1895    4.1787 H         1 <0>         0.0839
     65 H30        -0.9636   -4.0687    5.5300 H         1 <0>         0.4531
     66 H31        -0.5995   -4.1991   -2.8910 H         1 <0>         0.4798
     67 H32         0.0114   -5.6094   -3.6979 H         1 <0>         0.4881
     68 H33         0.6256   -7.5607   -0.7023 H         1 <0>         0.4801
     69 H34         0.7207   -7.5524   -2.4398 H         1 <0>         0.4806
     70 H35        -0.7354   -4.1951   -0.4451 H         1 <0>         0.4689
     71 H36        -1.4850   -1.3266    2.4871 H         1 <0>         0.4505
     72 H37         2.5309    2.1027    6.4310 H         1 <0>         0.4443
@<TRIPOS>BOND
     1    1    2 ar
     2    1    3 ar
     3    2    4 ar
     4    3    6 ar
     5    4    5 ar
     6    4   10 1
     7    5    6 ar
     8    5   24 1
     9    6   35 1
    10    7   15 1
    11    7   30 2
    12    7   34 1
    13    8   23 1
    14    8   25 am
    15    8   31 2
    16    9   26 1
    17    9   27 1
    18    9   28 1
    19   10   16 1
    20   11   13 1
    21   11   17 1
    22   12   15 1
    23   12   17 1
    24   13   25 1
    25   14   16 1
    26   14   24 1
    27   15   25 1
    28   16   18 1
    29   17   19 1
    30   20   21 1
    31   20   22 1
    32   21   23 1
    33   22   28 1
    34   23   29 1
    35   29   35 1
    36   32   35 2
    37   33   35 2
    38    1   36 1
    39    2   37 1
    40    3   38 1
    41   10   39 1
    42   10   40 1
    43   11   41 1
    44   11   42 1
    45   12   43 1
    46   12   44 1
    47   13   45 1
    48   13   46 1
    49   14   47 1
    50   14   48 1
    51   15   49 1
    52   16   50 1
    53   17   51 1
    54   18   52 1
    55   18   53 1
    56   18   54 1
    57   19   55 1
    58   19   56 1
    59   19   57 1
    60   20   58 1
    61   20   59 1
    62   21   60 1
    63   21   61 1
    64   22   62 1
    65   22   63 1
    66   23   64 1
    67   24   65 1
    68   26   66 1
    69   26   67 1
    70   27   68 1
    71   27   69 1
    72   28   70 1
    73   29   71 1
    74   34   72 1
