@<TRIPOS>MOLECULE
ZINC00092235_0
   52    56     0     0     0
SMALL
USER_CHARGES

@<TRIPOS>ATOM
      1 C1         -0.0870   -3.1448   -3.6564 C.ar      1 <0>        -0.0978
      2 C2          8.3483   -0.3781   -8.9227 C.ar      1 <0>        -0.0984
      3 C3         -1.0317   -2.1762   -3.9857 C.ar      1 <0>        -0.0943
      4 C4          8.6545   -1.4960   -9.6944 C.ar      1 <0>        -0.0957
      5 C5          1.0845   -2.7981   -2.9736 C.ar      1 <0>        -0.1265
      6 C6          8.3831   -0.4427   -7.5250 C.ar      1 <0>        -0.1261
      7 C7         -0.8360   -0.8356   -3.6441 C.ar      1 <0>        -0.1009
      8 C8          9.0040   -2.7091   -9.0957 C.ar      1 <0>        -0.1004
      9 C9          1.9993    0.5747   -1.8925 C.2       1 <0>         0.0849
     10 C10         9.2394   -3.4014   -5.5516 C.2       1 <0>         0.0824
     11 C11         1.3073   -1.4509   -2.6166 C.ar      1 <0>        -0.0700
     12 C12         8.7329   -1.6560   -6.8946 C.ar      1 <0>        -0.0695
     13 C13         2.3632   -0.7573   -1.9393 C.2       1 <0>        -0.3121
     14 C14         8.8615   -2.0726   -5.5290 C.2       1 <0>        -0.3108
     15 C15         0.3404   -0.5044   -2.9618 C.ar      1 <0>         0.0626
     16 C16         9.0342   -2.7582   -7.6972 C.ar      1 <0>         0.0622
     17 C17         6.1190   -1.3713   -1.4086 C.3       1 <0>         0.0793
     18 C18         4.8730   -1.6599   -3.5547 C.3       1 <0>         0.0777
     19 C19         7.3533   -0.9331   -2.1837 C.3       1 <0>         0.0735
     20 C20         6.1099   -1.2266   -4.3307 C.3       1 <0>         0.0792
     21 C21         3.6148   -1.3444   -1.3841 C.3       1 <0>         0.2470
     22 C22         8.6384   -1.2451   -4.3105 C.3       1 <0>         0.2493
     23 N1          0.7856    0.7146   -2.5081 N.pl3     1 <0>        -0.5192
     24 N2          9.3399   -3.8016   -6.8560 N.pl3     1 <0>        -0.5179
     25 N3          4.8685   -1.0161   -2.1840 N.4       1 <0>        -0.7137
     26 N4          7.3604   -1.5790   -3.5526 N.4       1 <0>        -0.7135
     27 H1         -0.2607   -4.1819   -3.9315 H         1 <0>         0.1593
     28 H2          8.0797    0.5556   -9.4101 H         1 <0>         0.1589
     29 H3         -1.9356   -2.4660   -4.5157 H         1 <0>         0.1682
     30 H4          8.6223   -1.4252  -10.7789 H         1 <0>         0.1676
     31 H5          1.8091   -3.5685   -2.7257 H         1 <0>         0.1247
     32 H6          8.1410    0.4405   -6.9408 H         1 <0>         0.1259
     33 H7         -1.5734   -0.0821   -3.9006 H         1 <0>         0.1640
     34 H8          9.2432   -3.5791   -9.6984 H         1 <0>         0.1649
     35 H9          2.4991    1.4367   -1.4717 H         1 <0>         0.1783
     36 H10         9.4481   -4.0976   -4.7506 H         1 <0>         0.1787
     37 H11         6.0695   -0.8481   -0.4482 H         1 <0>         0.1444
     38 H12         6.1062   -2.4536   -1.2375 H         1 <0>         0.1211
     39 H13         4.8411   -2.7458   -3.4109 H         1 <0>         0.1184
     40 H14         3.9728   -1.3333   -4.0830 H         1 <0>         0.1625
     41 H15         7.3805    0.1527   -2.3298 H         1 <0>         0.1217
     42 H16         8.2611   -1.2555   -1.6638 H         1 <0>         0.1444
     43 H17         6.1230   -0.1451   -4.5068 H         1 <0>         0.1176
     44 H18         6.1489   -1.7546   -5.2876 H         1 <0>         0.1624
     45 H19         3.5596   -2.4360   -1.3099 H         1 <0>         0.1105
     46 H20         3.7762   -0.9463   -0.3749 H         1 <0>         0.1015
     47 H21         8.6030   -0.1746   -4.5410 H         1 <0>         0.1098
     48 H22         9.4673   -1.4116   -3.6118 H         1 <0>         0.1013
     49 H23         0.2853    1.5867   -2.6139 H         1 <0>         0.4881
     50 H24         9.6025   -4.7293   -7.1600 H         1 <0>         0.4882
     51 H25         4.8659    0.0052   -2.3159 H         1 <0>         0.4431
     52 H26         7.3673   -2.5993   -3.4132 H         1 <0>         0.4430
@<TRIPOS>BOND
     1    1    3 ar
     2    1    5 ar
     3    2    4 ar
     4    2    6 ar
     5    3    7 ar
     6    4    8 ar
     7    5   11 ar
     8    6   12 ar
     9    7   15 ar
    10    8   16 ar
    11    9   13 2
    12    9   23 1
    13   10   14 2
    14   10   24 1
    15   11   13 1
    16   11   15 ar
    17   12   14 1
    18   12   16 ar
    19   13   21 1
    20   14   22 1
    21   15   23 1
    22   16   24 1
    23   17   19 1
    24   17   25 1
    25   18   20 1
    26   18   25 1
    27   19   26 1
    28   20   26 1
    29   21   25 1
    30   22   26 1
    31    1   27 1
    32    2   28 1
    33    3   29 1
    34    4   30 1
    35    5   31 1
    36    6   32 1
    37    7   33 1
    38    8   34 1
    39    9   35 1
    40   10   36 1
    41   17   37 1
    42   17   38 1
    43   18   39 1
    44   18   40 1
    45   19   41 1
    46   19   42 1
    47   20   43 1
    48   20   44 1
    49   21   45 1
    50   21   46 1
    51   22   47 1
    52   22   48 1
    53   23   49 1
    54   24   50 1
    55   25   51 1
    56   26   52 1
@<TRIPOS>MOLECULE
ZINC00092235_1
   52    56     0     0     0
SMALL
USER_CHARGES

mmff94s_NoEstat = 53.66
@<TRIPOS>ATOM
      1 C1          5.2345   -3.1273    0.5829 C.ar      1 <0>        -0.0978
      2 C2         -4.8326    0.6554   -6.4968 C.ar      1 <0>        -0.0984
      3 C3          6.2975   -3.4373   -0.2630 C.ar      1 <0>        -0.0943
      4 C4         -4.7286    0.1011   -7.7710 C.ar      1 <0>        -0.0957
      5 C5          4.2602   -2.1990    0.1983 C.ar      1 <0>        -0.1265
      6 C6         -4.2530    0.0229   -5.3909 C.ar      1 <0>        -0.1261
      7 C7          6.4212   -2.8318   -1.5168 C.ar      1 <0>        -0.1009
      8 C8         -4.0442   -1.0995   -7.9811 C.ar      1 <0>        -0.1004
      9 C9          4.1857   -0.3825   -2.9727 C.2       1 <0>         0.0849
     10 C10        -2.3806   -3.1153   -5.4740 C.2       1 <0>         0.0824
     11 C11         4.3640   -1.5756   -1.0611 C.ar      1 <0>        -0.0700
     12 C12        -3.5580   -1.1885   -5.5782 C.ar      1 <0>        -0.0695
     13 C13         3.6006   -0.6238   -1.7663 C.2       1 <0>        -0.3121
     14 C14        -2.8688   -2.0813   -4.7333 C.2       1 <0>        -0.3108
     15 C15         5.4399   -1.9057   -1.8879 C.ar      1 <0>         0.0626
     16 C16        -3.4698   -1.7206   -6.8664 C.ar      1 <0>         0.0622
     17 C17        -0.1424   -0.0915   -1.0817 C.3       1 <0>         0.0793
     18 C18         0.9917   -0.9303   -3.1418 C.3       1 <0>         0.0777
     19 C19        -1.3452   -0.9655   -1.3875 C.3       1 <0>         0.0735
     20 C20        -0.2112   -1.8040   -3.4486 C.3       1 <0>         0.0792
     21 C21         2.3415    0.0283   -1.2761 C.3       1 <0>         0.2470
     22 C22        -2.6944   -1.9286   -3.2510 C.3       1 <0>         0.2493
     23 N1          5.3060   -1.1666   -3.0415 N.pl3     1 <0>        -0.5192
     24 N2         -2.7496   -2.8901   -6.7731 N.pl3     1 <0>        -0.5179
     25 N3          1.1000   -0.7329   -1.6495 N.4       1 <0>        -0.7137
     26 N4         -1.4541   -1.1645   -2.8795 N.4       1 <0>        -0.7135
     27 H1          5.1597   -3.6106    1.5532 H         1 <0>         0.1593
     28 H2         -5.3702    1.5894   -6.3580 H         1 <0>         0.1589
     29 H3          7.0431   -4.1612    0.0554 H         1 <0>         0.1682
     30 H4         -5.1861    0.6089   -8.6160 H         1 <0>         0.1676
     31 H5          3.4373   -1.9681    0.8688 H         1 <0>         0.1247
     32 H6         -4.3425    0.4676   -4.4039 H         1 <0>         0.1259
     33 H7          7.2496   -3.0739   -2.1741 H         1 <0>         0.1640
     34 H8         -3.9644   -1.5300   -8.9736 H         1 <0>         0.1649
     35 H9          3.9208    0.2687   -3.7942 H         1 <0>         0.1783
     36 H10        -1.8060   -3.9927   -5.2113 H         1 <0>         0.1787
     37 H11        -0.2330    0.9061   -1.5261 H         1 <0>         0.1444
     38 H12         0.0058    0.0018   -0.0008 H         1 <0>         0.1211
     39 H13         1.9168   -1.4131   -3.4726 H         1 <0>         0.1184
     40 H14         0.9112    0.0608   -3.6025 H         1 <0>         0.1625
     41 H15        -1.2640   -1.9562   -0.9260 H         1 <0>         0.1217
     42 H16        -2.2707   -0.4835   -1.0562 H         1 <0>         0.1444
     43 H17        -0.3596   -1.8946   -4.5294 H         1 <0>         0.1176
     44 H18        -0.1203   -2.8031   -3.0074 H         1 <0>         0.1624
     45 H19         2.3402    0.1161   -0.1844 H         1 <0>         0.1105
     46 H20         2.2300    1.0355   -1.6920 H         1 <0>         0.1015
     47 H21        -3.5394   -1.3921   -2.8061 H         1 <0>         0.1098
     48 H22        -2.6221   -2.9043   -2.7587 H         1 <0>         0.1013
     49 H23         5.9433   -1.1988   -3.8253 H         1 <0>         0.4881
     50 H24        -2.5263   -3.4944   -7.5518 H         1 <0>         0.4882
     51 H25         1.2452   -1.6500   -1.1961 H         1 <0>         0.4431
     52 H26        -1.6017   -0.2480   -3.3335 H         1 <0>         0.4430
@<TRIPOS>BOND
     1    1    3 ar
     2    1    5 ar
     3    2    4 ar
     4    2    6 ar
     5    3    7 ar
     6    4    8 ar
     7    5   11 ar
     8    6   12 ar
     9    7   15 ar
    10    8   16 ar
    11    9   13 2
    12    9   23 1
    13   10   14 2
    14   10   24 1
    15   11   13 1
    16   11   15 ar
    17   12   14 1
    18   12   16 ar
    19   13   21 1
    20   14   22 1
    21   15   23 1
    22   16   24 1
    23   17   19 1
    24   17   25 1
    25   18   20 1
    26   18   25 1
    27   19   26 1
    28   20   26 1
    29   21   25 1
    30   22   26 1
    31    1   27 1
    32    2   28 1
    33    3   29 1
    34    4   30 1
    35    5   31 1
    36    6   32 1
    37    7   33 1
    38    8   34 1
    39    9   35 1
    40   10   36 1
    41   17   37 1
    42   17   38 1
    43   18   39 1
    44   18   40 1
    45   19   41 1
    46   19   42 1
    47   20   43 1
    48   20   44 1
    49   21   45 1
    50   21   46 1
    51   22   47 1
    52   22   48 1
    53   23   49 1
    54   24   50 1
    55   25   51 1
    56   26   52 1
@<TRIPOS>MOLECULE
ZINC00092235_2
   52    56     0     0     0
SMALL
USER_CHARGES

mmff94s_NoEstat = 53.67
@<TRIPOS>ATOM
      1 C1          4.4672   -2.5651    1.9703 C.ar      1 <0>        -0.0978
      2 C2         -5.5931    1.2232   -5.1079 C.ar      1 <0>        -0.0984
      3 C3          4.3627   -2.0118    3.2449 C.ar      1 <0>        -0.0943
      4 C4         -6.6557    1.5320   -4.2610 C.ar      1 <0>        -0.0957
      5 C5          3.8914   -1.9296    0.8641 C.ar      1 <0>        -0.1265
      6 C6         -4.6174    0.2959   -4.7242 C.ar      1 <0>        -0.1261
      7 C7          3.6818   -0.8093    3.4551 C.ar      1 <0>        -0.1009
      8 C8         -6.7777    0.9262   -3.0072 C.ar      1 <0>        -0.1004
      9 C9          2.0279    1.2138    0.9475 C.2       1 <0>         0.0849
     10 C10        -4.5378   -1.5201   -1.5530 C.2       1 <0>         0.0824
     11 C11         3.1998   -0.7163    1.0515 C.ar      1 <0>        -0.0700
     12 C12        -4.7194   -0.3276   -3.4647 C.ar      1 <0>        -0.0695
     13 C13         2.5148    0.1795    0.2065 C.2       1 <0>        -0.3121
     14 C14        -3.9544   -1.2786   -2.7602 C.2       1 <0>        -0.3108
     15 C15         3.1111   -0.1853    2.3401 C.ar      1 <0>         0.0626
     16 C16        -5.7951    0.0013   -2.6370 C.ar      1 <0>         0.0622
     17 C17        -0.1424   -0.0915   -1.0817 C.3       1 <0>         0.0793
     18 C18         0.9917   -0.9303   -3.1418 C.3       1 <0>         0.0777
     19 C19        -1.3452   -0.9655   -1.3875 C.3       1 <0>         0.0735
     20 C20        -0.2112   -1.8040   -3.4486 C.3       1 <0>         0.0792
     21 C21         2.3415    0.0283   -1.2761 C.3       1 <0>         0.2470
     22 C22        -2.6944   -1.9286   -3.2510 C.3       1 <0>         0.2493
     23 N1          2.3945    0.9865    2.2469 N.pl3     1 <0>        -0.5192
     24 N2         -5.6592   -0.7377   -1.4834 N.pl3     1 <0>        -0.5179
     25 N3          1.1000   -0.7329   -1.6495 N.4       1 <0>        -0.7137
     26 N4         -1.4541   -1.1645   -2.8795 N.4       1 <0>        -0.7135
     27 H1          5.0011   -3.5012    1.8316 H         1 <0>         0.1593
     28 H2         -5.5190    1.7074   -6.0777 H         1 <0>         0.1589
     29 H3          4.8174   -2.5218    4.0901 H         1 <0>         0.1682
     30 H4         -7.4024    2.2550   -4.5788 H         1 <0>         0.1676
     31 H5          3.9816   -2.3734   -0.1233 H         1 <0>         0.1247
     32 H6         -3.7952    0.0655   -5.3956 H         1 <0>         0.1259
     33 H7          3.6009   -0.3800    4.4481 H         1 <0>         0.1640
     34 H8         -7.6054    1.1679   -2.3488 H         1 <0>         0.1649
     35 H9          1.4557    2.0929    0.6849 H         1 <0>         0.1783
     36 H10        -4.2710   -2.1703   -0.7314 H         1 <0>         0.1787
     37 H11        -0.2330    0.9061   -1.5261 H         1 <0>         0.1444
     38 H12         0.0058    0.0018   -0.0008 H         1 <0>         0.1211
     39 H13         1.9168   -1.4131   -3.4726 H         1 <0>         0.1184
     40 H14         0.9112    0.0608   -3.6025 H         1 <0>         0.1625
     41 H15        -1.2640   -1.9562   -0.9260 H         1 <0>         0.1217
     42 H16        -2.2707   -0.4835   -1.0562 H         1 <0>         0.1444
     43 H17        -0.3596   -1.8946   -4.5294 H         1 <0>         0.1176
     44 H18        -0.1203   -2.8031   -3.0074 H         1 <0>         0.1624
     45 H19         2.2719    1.0044   -1.7682 H         1 <0>         0.1105
     46 H20         3.1859   -0.5098   -1.7202 H         1 <0>         0.1015
     47 H21        -2.5802   -2.9353   -2.8349 H         1 <0>         0.1098
     48 H22        -2.6943   -2.0168   -4.3428 H         1 <0>         0.1013
     49 H23         2.1718    1.5907    3.0259 H         1 <0>         0.4881
     50 H24        -6.2959   -0.7062   -0.6991 H         1 <0>         0.4882
     51 H25         1.2452   -1.6500   -1.1961 H         1 <0>         0.4431
     52 H26        -1.6017   -0.2480   -3.3335 H         1 <0>         0.4430
@<TRIPOS>BOND
     1    1    3 ar
     2    1    5 ar
     3    2    4 ar
     4    2    6 ar
     5    3    7 ar
     6    4    8 ar
     7    5   11 ar
     8    6   12 ar
     9    7   15 ar
    10    8   16 ar
    11    9   13 2
    12    9   23 1
    13   10   14 2
    14   10   24 1
    15   11   13 1
    16   11   15 ar
    17   12   14 1
    18   12   16 ar
    19   13   21 1
    20   14   22 1
    21   15   23 1
    22   16   24 1
    23   17   19 1
    24   17   25 1
    25   18   20 1
    26   18   25 1
    27   19   26 1
    28   20   26 1
    29   21   25 1
    30   22   26 1
    31    1   27 1
    32    2   28 1
    33    3   29 1
    34    4   30 1
    35    5   31 1
    36    6   32 1
    37    7   33 1
    38    8   34 1
    39    9   35 1
    40   10   36 1
    41   17   37 1
    42   17   38 1
    43   18   39 1
    44   18   40 1
    45   19   41 1
    46   19   42 1
    47   20   43 1
    48   20   44 1
    49   21   45 1
    50   21   46 1
    51   22   47 1
    52   22   48 1
    53   23   49 1
    54   24   50 1
    55   25   51 1
    56   26   52 1
@<TRIPOS>MOLECULE
ZINC00092235_3
   52    56     0     0     0
SMALL
USER_CHARGES

mmff94s_NoEstat = 53.69
@<TRIPOS>ATOM
      1 C1          4.4672   -2.5651    1.9703 C.ar      1 <0>        -0.0978
      2 C2         -4.8326    0.6554   -6.4968 C.ar      1 <0>        -0.0984
      3 C3          4.3627   -2.0118    3.2449 C.ar      1 <0>        -0.0943
      4 C4         -4.7286    0.1011   -7.7710 C.ar      1 <0>        -0.0957
      5 C5          3.8914   -1.9296    0.8641 C.ar      1 <0>        -0.1265
      6 C6         -4.2530    0.0229   -5.3909 C.ar      1 <0>        -0.1261
      7 C7          3.6818   -0.8093    3.4551 C.ar      1 <0>        -0.1009
      8 C8         -4.0442   -1.0995   -7.9811 C.ar      1 <0>        -0.1004
      9 C9          2.0279    1.2138    0.9475 C.2       1 <0>         0.0849
     10 C10        -2.3806   -3.1153   -5.4740 C.2       1 <0>         0.0824
     11 C11         3.1998   -0.7163    1.0515 C.ar      1 <0>        -0.0700
     12 C12        -3.5580   -1.1885   -5.5782 C.ar      1 <0>        -0.0695
     13 C13         2.5148    0.1795    0.2065 C.2       1 <0>        -0.3121
     14 C14        -2.8688   -2.0813   -4.7333 C.2       1 <0>        -0.3108
     15 C15         3.1111   -0.1853    2.3401 C.ar      1 <0>         0.0626
     16 C16        -3.4698   -1.7206   -6.8664 C.ar      1 <0>         0.0622
     17 C17        -0.1424   -0.0915   -1.0817 C.3       1 <0>         0.0793
     18 C18         0.9917   -0.9303   -3.1418 C.3       1 <0>         0.0777
     19 C19        -1.3452   -0.9655   -1.3875 C.3       1 <0>         0.0735
     20 C20        -0.2112   -1.8040   -3.4486 C.3       1 <0>         0.0792
     21 C21         2.3415    0.0283   -1.2761 C.3       1 <0>         0.2470
     22 C22        -2.6944   -1.9286   -3.2510 C.3       1 <0>         0.2493
     23 N1          2.3945    0.9865    2.2469 N.pl3     1 <0>        -0.5192
     24 N2         -2.7496   -2.8901   -6.7731 N.pl3     1 <0>        -0.5179
     25 N3          1.1000   -0.7329   -1.6495 N.4       1 <0>        -0.7137
     26 N4         -1.4541   -1.1645   -2.8795 N.4       1 <0>        -0.7135
     27 H1          5.0011   -3.5012    1.8316 H         1 <0>         0.1593
     28 H2         -5.3702    1.5894   -6.3580 H         1 <0>         0.1589
     29 H3          4.8174   -2.5218    4.0901 H         1 <0>         0.1682
     30 H4         -5.1861    0.6089   -8.6160 H         1 <0>         0.1676
     31 H5          3.9816   -2.3734   -0.1233 H         1 <0>         0.1247
     32 H6         -4.3425    0.4676   -4.4039 H         1 <0>         0.1259
     33 H7          3.6009   -0.3800    4.4481 H         1 <0>         0.1640
     34 H8         -3.9644   -1.5300   -8.9736 H         1 <0>         0.1649
     35 H9          1.4557    2.0929    0.6849 H         1 <0>         0.1783
     36 H10        -1.8060   -3.9927   -5.2113 H         1 <0>         0.1787
     37 H11        -0.2330    0.9061   -1.5261 H         1 <0>         0.1444
     38 H12         0.0058    0.0018   -0.0008 H         1 <0>         0.1211
     39 H13         1.9168   -1.4131   -3.4726 H         1 <0>         0.1184
     40 H14         0.9112    0.0608   -3.6025 H         1 <0>         0.1625
     41 H15        -1.2640   -1.9562   -0.9260 H         1 <0>         0.1217
     42 H16        -2.2707   -0.4835   -1.0562 H         1 <0>         0.1444
     43 H17        -0.3596   -1.8946   -4.5294 H         1 <0>         0.1176
     44 H18        -0.1203   -2.8031   -3.0074 H         1 <0>         0.1624
     45 H19         2.2719    1.0044   -1.7682 H         1 <0>         0.1105
     46 H20         3.1859   -0.5098   -1.7202 H         1 <0>         0.1015
     47 H21        -3.5394   -1.3921   -2.8061 H         1 <0>         0.1098
     48 H22        -2.6221   -2.9043   -2.7587 H         1 <0>         0.1013
     49 H23         2.1718    1.5907    3.0259 H         1 <0>         0.4881
     50 H24        -2.5263   -3.4944   -7.5518 H         1 <0>         0.4882
     51 H25         1.2452   -1.6500   -1.1961 H         1 <0>         0.4431
     52 H26        -1.6017   -0.2480   -3.3335 H         1 <0>         0.4430
@<TRIPOS>BOND
     1    1    3 ar
     2    1    5 ar
     3    2    4 ar
     4    2    6 ar
     5    3    7 ar
     6    4    8 ar
     7    5   11 ar
     8    6   12 ar
     9    7   15 ar
    10    8   16 ar
    11    9   13 2
    12    9   23 1
    13   10   14 2
    14   10   24 1
    15   11   13 1
    16   11   15 ar
    17   12   14 1
    18   12   16 ar
    19   13   21 1
    20   14   22 1
    21   15   23 1
    22   16   24 1
    23   17   19 1
    24   17   25 1
    25   18   20 1
    26   18   25 1
    27   19   26 1
    28   20   26 1
    29   21   25 1
    30   22   26 1
    31    1   27 1
    32    2   28 1
    33    3   29 1
    34    4   30 1
    35    5   31 1
    36    6   32 1
    37    7   33 1
    38    8   34 1
    39    9   35 1
    40   10   36 1
    41   17   37 1
    42   17   38 1
    43   18   39 1
    44   18   40 1
    45   19   41 1
    46   19   42 1
    47   20   43 1
    48   20   44 1
    49   21   45 1
    50   21   46 1
    51   22   47 1
    52   22   48 1
    53   23   49 1
    54   24   50 1
    55   25   51 1
    56   26   52 1
@<TRIPOS>MOLECULE
ZINC00092235_4
   52    56     0     0     0
SMALL
USER_CHARGES

mmff94s_NoEstat = 53.69
@<TRIPOS>ATOM
      1 C1          6.1696    1.6625   -3.3876 C.ar      1 <0>        -0.0978
      2 C2         -4.8326    0.6554   -6.4968 C.ar      1 <0>        -0.0984
      3 C3          7.0967    0.6582   -3.6591 C.ar      1 <0>        -0.0943
      4 C4         -4.7286    0.1011   -7.7710 C.ar      1 <0>        -0.0957
      5 C5          4.9564    1.3657   -2.7561 C.ar      1 <0>        -0.1265
      6 C6         -4.2530    0.0229   -5.3909 C.ar      1 <0>        -0.1261
      7 C7          6.8425   -0.6711   -3.3095 C.ar      1 <0>        -0.1009
      8 C8         -4.0442   -1.0995   -7.9811 C.ar      1 <0>        -0.1004
      9 C9          3.8782   -1.9542   -1.6715 C.2       1 <0>         0.0849
     10 C10        -2.3806   -3.1153   -5.4740 C.2       1 <0>         0.0824
     11 C11         4.6779    0.0326   -2.3943 C.ar      1 <0>        -0.0700
     12 C12        -3.5580   -1.1885   -5.5782 C.ar      1 <0>        -0.0695
     13 C13         3.6006   -0.6238   -1.7663 C.2       1 <0>        -0.3121
     14 C14        -2.8688   -2.0813   -4.7333 C.2       1 <0>        -0.3108
     15 C15         5.6255   -0.9530   -2.6788 C.ar      1 <0>         0.0626
     16 C16        -3.4698   -1.7206   -6.8664 C.ar      1 <0>         0.0622
     17 C17        -0.1424   -0.0915   -1.0817 C.3       1 <0>         0.0793
     18 C18         0.9917   -0.9303   -3.1418 C.3       1 <0>         0.0777
     19 C19        -1.3452   -0.9655   -1.3875 C.3       1 <0>         0.0735
     20 C20        -0.2112   -1.8040   -3.4486 C.3       1 <0>         0.0792
     21 C21         2.3415    0.0283   -1.2761 C.3       1 <0>         0.2470
     22 C22        -2.6944   -1.9286   -3.2510 C.3       1 <0>         0.2493
     23 N1          5.1135   -2.1491   -2.2288 N.pl3     1 <0>        -0.5192
     24 N2         -2.7496   -2.8901   -6.7731 N.pl3     1 <0>        -0.5179
     25 N3          1.1000   -0.7329   -1.6495 N.4       1 <0>        -0.7137
     26 N4         -1.4541   -1.1645   -2.8795 N.4       1 <0>        -0.7135
     27 H1          6.3893    2.6886   -3.6693 H         1 <0>         0.1593
     28 H2         -5.3702    1.5894   -6.3580 H         1 <0>         0.1589
     29 H3          8.0328    0.9106   -4.1503 H         1 <0>         0.1682
     30 H4         -5.1861    0.6089   -8.6160 H         1 <0>         0.1676
     31 H5          4.2439    2.1596   -2.5510 H         1 <0>         0.1247
     32 H6         -4.3425    0.4676   -4.4039 H         1 <0>         0.1259
     33 H7          7.5650   -1.4520   -3.5219 H         1 <0>         0.1640
     34 H8         -3.9644   -1.5300   -8.9736 H         1 <0>         0.1649
     35 H9          3.3230   -2.7875   -1.2634 H         1 <0>         0.1783
     36 H10        -1.8060   -3.9927   -5.2113 H         1 <0>         0.1787
     37 H11        -0.2330    0.9061   -1.5261 H         1 <0>         0.1444
     38 H12         0.0058    0.0018   -0.0008 H         1 <0>         0.1211
     39 H13         1.9168   -1.4131   -3.4726 H         1 <0>         0.1184
     40 H14         0.9112    0.0608   -3.6025 H         1 <0>         0.1625
     41 H15        -1.2640   -1.9562   -0.9260 H         1 <0>         0.1217
     42 H16        -2.2707   -0.4835   -1.0562 H         1 <0>         0.1444
     43 H17        -0.3596   -1.8946   -4.5294 H         1 <0>         0.1176
     44 H18        -0.1203   -2.8031   -3.0074 H         1 <0>         0.1624
     45 H19         2.3402    0.1161   -0.1844 H         1 <0>         0.1105
     46 H20         2.2300    1.0355   -1.6920 H         1 <0>         0.1015
     47 H21        -3.5394   -1.3921   -2.8061 H         1 <0>         0.1098
     48 H22        -2.6221   -2.9043   -2.7587 H         1 <0>         0.1013
     49 H23         5.5826   -3.0414   -2.3003 H         1 <0>         0.4881
     50 H24        -2.5263   -3.4944   -7.5518 H         1 <0>         0.4882
     51 H25         1.2452   -1.6500   -1.1961 H         1 <0>         0.4431
     52 H26        -1.6017   -0.2480   -3.3335 H         1 <0>         0.4430
@<TRIPOS>BOND
     1    1    3 ar
     2    1    5 ar
     3    2    4 ar
     4    2    6 ar
     5    3    7 ar
     6    4    8 ar
     7    5   11 ar
     8    6   12 ar
     9    7   15 ar
    10    8   16 ar
    11    9   13 2
    12    9   23 1
    13   10   14 2
    14   10   24 1
    15   11   13 1
    16   11   15 ar
    17   12   14 1
    18   12   16 ar
    19   13   21 1
    20   14   22 1
    21   15   23 1
    22   16   24 1
    23   17   19 1
    24   17   25 1
    25   18   20 1
    26   18   25 1
    27   19   26 1
    28   20   26 1
    29   21   25 1
    30   22   26 1
    31    1   27 1
    32    2   28 1
    33    3   29 1
    34    4   30 1
    35    5   31 1
    36    6   32 1
    37    7   33 1
    38    8   34 1
    39    9   35 1
    40   10   36 1
    41   17   37 1
    42   17   38 1
    43   18   39 1
    44   18   40 1
    45   19   41 1
    46   19   42 1
    47   20   43 1
    48   20   44 1
    49   21   45 1
    50   21   46 1
    51   22   47 1
    52   22   48 1
    53   23   49 1
    54   24   50 1
    55   25   51 1
    56   26   52 1
@<TRIPOS>MOLECULE
ZINC00092235_5
   52    56     0     0     0
SMALL
USER_CHARGES

mmff94s_NoEstat = 53.69
@<TRIPOS>ATOM
      1 C1          3.5112    3.6315    1.4502 C.ar      1 <0>        -0.0978
      2 C2         -5.5931    1.2232   -5.1079 C.ar      1 <0>        -0.0984
      3 C3          3.5462    3.2873    2.8000 C.ar      1 <0>        -0.0943
      4 C4         -6.6557    1.5320   -4.2610 C.ar      1 <0>        -0.0957
      5 C5          3.1795    2.6816    0.4771 C.ar      1 <0>        -0.1265
      6 C6         -4.6174    0.2959   -4.7242 C.ar      1 <0>        -0.1261
      7 C7          3.2518    1.9871    3.2202 C.ar      1 <0>        -0.1009
      8 C8         -6.7777    0.9262   -3.0072 C.ar      1 <0>        -0.1004
      9 C9          2.3429   -0.8184    1.1179 C.2       1 <0>         0.0849
     10 C10        -4.5378   -1.5201   -1.5530 C.2       1 <0>         0.0824
     11 C11         2.8790    1.3643    0.8769 C.ar      1 <0>        -0.0700
     12 C12        -4.7194   -0.3276   -3.4647 C.ar      1 <0>        -0.0695
     13 C13         2.5148    0.1795    0.2065 C.2       1 <0>        -0.3121
     14 C14        -3.9544   -1.2786   -2.7602 C.2       1 <0>        -0.3108
     15 C15         2.9220    1.0481    2.2365 C.ar      1 <0>         0.0626
     16 C16        -5.7951    0.0013   -2.6370 C.ar      1 <0>         0.0622
     17 C17        -0.1424   -0.0915   -1.0817 C.3       1 <0>         0.0793
     18 C18         0.9917   -0.9303   -3.1418 C.3       1 <0>         0.0777
     19 C19        -1.3452   -0.9655   -1.3875 C.3       1 <0>         0.0735
     20 C20        -0.2112   -1.8040   -3.4486 C.3       1 <0>         0.0792
     21 C21         2.3415    0.0283   -1.2761 C.3       1 <0>         0.2470
     22 C22        -2.6944   -1.9286   -3.2510 C.3       1 <0>         0.2493
     23 N1          2.5921   -0.2834    2.3533 N.pl3     1 <0>        -0.5192
     24 N2         -5.6592   -0.7377   -1.4834 N.pl3     1 <0>        -0.5179
     25 N3          1.1000   -0.7329   -1.6495 N.4       1 <0>        -0.7137
     26 N4         -1.4541   -1.1645   -2.8795 N.4       1 <0>        -0.7135
     27 H1          3.7445    4.6486    1.1475 H         1 <0>         0.1593
     28 H2         -5.5190    1.7074   -6.0777 H         1 <0>         0.1589
     29 H3          3.8062    4.0405    3.5392 H         1 <0>         0.1682
     30 H4         -7.4024    2.2550   -4.5788 H         1 <0>         0.1676
     31 H5          3.1563    2.9654   -0.5712 H         1 <0>         0.1247
     32 H6         -3.7952    0.0655   -5.3956 H         1 <0>         0.1259
     33 H7          3.2798    1.7205    4.2715 H         1 <0>         0.1640
     34 H8         -7.6054    1.1679   -2.3488 H         1 <0>         0.1649
     35 H9          2.0679   -1.8591    1.0163 H         1 <0>         0.1783
     36 H10        -4.2710   -2.1703   -0.7314 H         1 <0>         0.1787
     37 H11        -0.2330    0.9061   -1.5261 H         1 <0>         0.1444
     38 H12         0.0058    0.0018   -0.0008 H         1 <0>         0.1211
     39 H13         1.9168   -1.4131   -3.4726 H         1 <0>         0.1184
     40 H14         0.9112    0.0608   -3.6025 H         1 <0>         0.1625
     41 H15        -1.2640   -1.9562   -0.9260 H         1 <0>         0.1217
     42 H16        -2.2707   -0.4835   -1.0562 H         1 <0>         0.1444
     43 H17        -0.3596   -1.8946   -4.5294 H         1 <0>         0.1176
     44 H18        -0.1203   -2.8031   -3.0074 H         1 <0>         0.1624
     45 H19         2.2719    1.0044   -1.7682 H         1 <0>         0.1105
     46 H20         3.1859   -0.5098   -1.7202 H         1 <0>         0.1015
     47 H21        -2.5802   -2.9353   -2.8349 H         1 <0>         0.1098
     48 H22        -2.6943   -2.0168   -4.3428 H         1 <0>         0.1013
     49 H23         2.5416   -0.7914    3.2255 H         1 <0>         0.4881
     50 H24        -6.2959   -0.7062   -0.6991 H         1 <0>         0.4882
     51 H25         1.2452   -1.6500   -1.1961 H         1 <0>         0.4431
     52 H26        -1.6017   -0.2480   -3.3335 H         1 <0>         0.4430
@<TRIPOS>BOND
     1    1    3 ar
     2    1    5 ar
     3    2    4 ar
     4    2    6 ar
     5    3    7 ar
     6    4    8 ar
     7    5   11 ar
     8    6   12 ar
     9    7   15 ar
    10    8   16 ar
    11    9   13 2
    12    9   23 1
    13   10   14 2
    14   10   24 1
    15   11   13 1
    16   11   15 ar
    17   12   14 1
    18   12   16 ar
    19   13   21 1
    20   14   22 1
    21   15   23 1
    22   16   24 1
    23   17   19 1
    24   17   25 1
    25   18   20 1
    26   18   25 1
    27   19   26 1
    28   20   26 1
    29   21   25 1
    30   22   26 1
    31    1   27 1
    32    2   28 1
    33    3   29 1
    34    4   30 1
    35    5   31 1
    36    6   32 1
    37    7   33 1
    38    8   34 1
    39    9   35 1
    40   10   36 1
    41   17   37 1
    42   17   38 1
    43   18   39 1
    44   18   40 1
    45   19   41 1
    46   19   42 1
    47   20   43 1
    48   20   44 1
    49   21   45 1
    50   21   46 1
    51   22   47 1
    52   22   48 1
    53   23   49 1
    54   24   50 1
    55   25   51 1
    56   26   52 1
@<TRIPOS>MOLECULE
ZINC00092235_6
   52    56     0     0     0
SMALL
USER_CHARGES

mmff94s_NoEstat = 53.71
@<TRIPOS>ATOM
      1 C1          3.5112    3.6315    1.4502 C.ar      1 <0>        -0.0978
      2 C2         -4.8326    0.6554   -6.4968 C.ar      1 <0>        -0.0984
      3 C3          3.5462    3.2873    2.8000 C.ar      1 <0>        -0.0943
      4 C4         -4.7286    0.1011   -7.7710 C.ar      1 <0>        -0.0957
      5 C5          3.1795    2.6816    0.4771 C.ar      1 <0>        -0.1265
      6 C6         -4.2530    0.0229   -5.3909 C.ar      1 <0>        -0.1261
      7 C7          3.2518    1.9871    3.2202 C.ar      1 <0>        -0.1009
      8 C8         -4.0442   -1.0995   -7.9811 C.ar      1 <0>        -0.1004
      9 C9          2.3429   -0.8184    1.1179 C.2       1 <0>         0.0849
     10 C10        -2.3806   -3.1153   -5.4740 C.2       1 <0>         0.0824
     11 C11         2.8790    1.3643    0.8769 C.ar      1 <0>        -0.0700
     12 C12        -3.5580   -1.1885   -5.5782 C.ar      1 <0>        -0.0695
     13 C13         2.5148    0.1795    0.2065 C.2       1 <0>        -0.3121
     14 C14        -2.8688   -2.0813   -4.7333 C.2       1 <0>        -0.3108
     15 C15         2.9220    1.0481    2.2365 C.ar      1 <0>         0.0626
     16 C16        -3.4698   -1.7206   -6.8664 C.ar      1 <0>         0.0622
     17 C17        -0.1424   -0.0915   -1.0817 C.3       1 <0>         0.0793
     18 C18         0.9917   -0.9303   -3.1418 C.3       1 <0>         0.0777
     19 C19        -1.3452   -0.9655   -1.3875 C.3       1 <0>         0.0735
     20 C20        -0.2112   -1.8040   -3.4486 C.3       1 <0>         0.0792
     21 C21         2.3415    0.0283   -1.2761 C.3       1 <0>         0.2470
     22 C22        -2.6944   -1.9286   -3.2510 C.3       1 <0>         0.2493
     23 N1          2.5921   -0.2834    2.3533 N.pl3     1 <0>        -0.5192
     24 N2         -2.7496   -2.8901   -6.7731 N.pl3     1 <0>        -0.5179
     25 N3          1.1000   -0.7329   -1.6495 N.4       1 <0>        -0.7137
     26 N4         -1.4541   -1.1645   -2.8795 N.4       1 <0>        -0.7135
     27 H1          3.7445    4.6486    1.1475 H         1 <0>         0.1593
     28 H2         -5.3702    1.5894   -6.3580 H         1 <0>         0.1589
     29 H3          3.8062    4.0405    3.5392 H         1 <0>         0.1682
     30 H4         -5.1861    0.6089   -8.6160 H         1 <0>         0.1676
     31 H5          3.1563    2.9654   -0.5712 H         1 <0>         0.1247
     32 H6         -4.3425    0.4676   -4.4039 H         1 <0>         0.1259
     33 H7          3.2798    1.7205    4.2715 H         1 <0>         0.1640
     34 H8         -3.9644   -1.5300   -8.9736 H         1 <0>         0.1649
     35 H9          2.0679   -1.8591    1.0163 H         1 <0>         0.1783
     36 H10        -1.8060   -3.9927   -5.2113 H         1 <0>         0.1787
     37 H11        -0.2330    0.9061   -1.5261 H         1 <0>         0.1444
     38 H12         0.0058    0.0018   -0.0008 H         1 <0>         0.1211
     39 H13         1.9168   -1.4131   -3.4726 H         1 <0>         0.1184
     40 H14         0.9112    0.0608   -3.6025 H         1 <0>         0.1625
     41 H15        -1.2640   -1.9562   -0.9260 H         1 <0>         0.1217
     42 H16        -2.2707   -0.4835   -1.0562 H         1 <0>         0.1444
     43 H17        -0.3596   -1.8946   -4.5294 H         1 <0>         0.1176
     44 H18        -0.1203   -2.8031   -3.0074 H         1 <0>         0.1624
     45 H19         2.2719    1.0044   -1.7682 H         1 <0>         0.1105
     46 H20         3.1859   -0.5098   -1.7202 H         1 <0>         0.1015
     47 H21        -3.5394   -1.3921   -2.8061 H         1 <0>         0.1098
     48 H22        -2.6221   -2.9043   -2.7587 H         1 <0>         0.1013
     49 H23         2.5416   -0.7914    3.2255 H         1 <0>         0.4881
     50 H24        -2.5263   -3.4944   -7.5518 H         1 <0>         0.4882
     51 H25         1.2452   -1.6500   -1.1961 H         1 <0>         0.4431
     52 H26        -1.6017   -0.2480   -3.3335 H         1 <0>         0.4430
@<TRIPOS>BOND
     1    1    3 ar
     2    1    5 ar
     3    2    4 ar
     4    2    6 ar
     5    3    7 ar
     6    4    8 ar
     7    5   11 ar
     8    6   12 ar
     9    7   15 ar
    10    8   16 ar
    11    9   13 2
    12    9   23 1
    13   10   14 2
    14   10   24 1
    15   11   13 1
    16   11   15 ar
    17   12   14 1
    18   12   16 ar
    19   13   21 1
    20   14   22 1
    21   15   23 1
    22   16   24 1
    23   17   19 1
    24   17   25 1
    25   18   20 1
    26   18   25 1
    27   19   26 1
    28   20   26 1
    29   21   25 1
    30   22   26 1
    31    1   27 1
    32    2   28 1
    33    3   29 1
    34    4   30 1
    35    5   31 1
    36    6   32 1
    37    7   33 1
    38    8   34 1
    39    9   35 1
    40   10   36 1
    41   17   37 1
    42   17   38 1
    43   18   39 1
    44   18   40 1
    45   19   41 1
    46   19   42 1
    47   20   43 1
    48   20   44 1
    49   21   45 1
    50   21   46 1
    51   22   47 1
    52   22   48 1
    53   23   49 1
    54   24   50 1
    55   25   51 1
    56   26   52 1
@<TRIPOS>MOLECULE
ZINC00092235_7
   52    56     0     0     0
SMALL
USER_CHARGES

mmff94s_NoEstat = 53.72
@<TRIPOS>ATOM
      1 C1          3.5112    3.6315    1.4502 C.ar      1 <0>        -0.0978
      2 C2         -6.5192   -3.5695   -1.1387 C.ar      1 <0>        -0.0984
      3 C3          3.5462    3.2873    2.8000 C.ar      1 <0>        -0.0943
      4 C4         -7.4483   -2.5669   -0.8675 C.ar      1 <0>        -0.0957
      5 C5          3.1795    2.6816    0.4771 C.ar      1 <0>        -0.1265
      6 C6         -5.3064   -3.2705   -1.7701 C.ar      1 <0>        -0.1261
      7 C7          3.2518    1.9871    3.2202 C.ar      1 <0>        -0.1009
      8 C8         -7.1964   -1.2372   -1.2172 C.ar      1 <0>        -0.1004
      9 C9          2.3429   -0.8184    1.1179 C.2       1 <0>         0.0849
     10 C10        -4.2348    0.0512   -2.8558 C.2       1 <0>         0.0824
     11 C11         2.8790    1.3643    0.8769 C.ar      1 <0>        -0.0700
     12 C12        -5.0305   -1.9369   -2.1321 C.ar      1 <0>        -0.0695
     13 C13         2.5148    0.1795    0.2065 C.2       1 <0>        -0.3121
     14 C14        -3.9544   -1.2786   -2.7602 C.2       1 <0>        -0.3108
     15 C15         2.9220    1.0481    2.2365 C.ar      1 <0>         0.0626
     16 C16        -5.9799   -0.9531   -1.8478 C.ar      1 <0>         0.0622
     17 C17        -0.1424   -0.0915   -1.0817 C.3       1 <0>         0.0793
     18 C18         0.9917   -0.9303   -3.1418 C.3       1 <0>         0.0777
     19 C19        -1.3452   -0.9655   -1.3875 C.3       1 <0>         0.0735
     20 C20        -0.2112   -1.8040   -3.4486 C.3       1 <0>         0.0792
     21 C21         2.3415    0.0283   -1.2761 C.3       1 <0>         0.2470
     22 C22        -2.6944   -1.9286   -3.2510 C.3       1 <0>         0.2493
     23 N1          2.5921   -0.2834    2.3533 N.pl3     1 <0>        -0.5192
     24 N2         -5.4702    0.2439   -2.2981 N.pl3     1 <0>        -0.5179
     25 N3          1.1000   -0.7329   -1.6495 N.4       1 <0>        -0.7137
     26 N4         -1.4541   -1.1645   -2.8795 N.4       1 <0>        -0.7135
     27 H1          3.7445    4.6486    1.1475 H         1 <0>         0.1593
     28 H2         -6.7375   -4.5962   -0.8580 H         1 <0>         0.1589
     29 H3          3.8062    4.0405    3.5392 H         1 <0>         0.1682
     30 H4         -8.3838   -2.8210   -0.3762 H         1 <0>         0.1676
     31 H5          3.1563    2.9654   -0.5712 H         1 <0>         0.1247
     32 H6         -4.5923   -4.0630   -1.9746 H         1 <0>         0.1259
     33 H7          3.2798    1.7205    4.2715 H         1 <0>         0.1640
     34 H8         -7.9208   -0.4578   -1.0057 H         1 <0>         0.1649
     35 H9          2.0679   -1.8591    1.0163 H         1 <0>         0.1783
     36 H10        -3.6816    0.8853   -3.2648 H         1 <0>         0.1787
     37 H11        -0.2330    0.9061   -1.5261 H         1 <0>         0.1444
     38 H12         0.0058    0.0018   -0.0008 H         1 <0>         0.1211
     39 H13         1.9168   -1.4131   -3.4726 H         1 <0>         0.1184
     40 H14         0.9112    0.0608   -3.6025 H         1 <0>         0.1625
     41 H15        -1.2640   -1.9562   -0.9260 H         1 <0>         0.1217
     42 H16        -2.2707   -0.4835   -1.0562 H         1 <0>         0.1444
     43 H17        -0.3596   -1.8946   -4.5294 H         1 <0>         0.1176
     44 H18        -0.1203   -2.8031   -3.0074 H         1 <0>         0.1624
     45 H19         2.2719    1.0044   -1.7682 H         1 <0>         0.1105
     46 H20         3.1859   -0.5098   -1.7202 H         1 <0>         0.1015
     47 H21        -2.5802   -2.9353   -2.8349 H         1 <0>         0.1098
     48 H22        -2.6943   -2.0168   -4.3428 H         1 <0>         0.1013
     49 H23         2.5416   -0.7914    3.2255 H         1 <0>         0.4881
     50 H24        -5.9410    1.1353   -2.2267 H         1 <0>         0.4882
     51 H25         1.2452   -1.6500   -1.1961 H         1 <0>         0.4431
     52 H26        -1.6017   -0.2480   -3.3335 H         1 <0>         0.4430
@<TRIPOS>BOND
     1    1    3 ar
     2    1    5 ar
     3    2    4 ar
     4    2    6 ar
     5    3    7 ar
     6    4    8 ar
     7    5   11 ar
     8    6   12 ar
     9    7   15 ar
    10    8   16 ar
    11    9   13 2
    12    9   23 1
    13   10   14 2
    14   10   24 1
    15   11   13 1
    16   11   15 ar
    17   12   14 1
    18   12   16 ar
    19   13   21 1
    20   14   22 1
    21   15   23 1
    22   16   24 1
    23   17   19 1
    24   17   25 1
    25   18   20 1
    26   18   25 1
    27   19   26 1
    28   20   26 1
    29   21   25 1
    30   22   26 1
    31    1   27 1
    32    2   28 1
    33    3   29 1
    34    4   30 1
    35    5   31 1
    36    6   32 1
    37    7   33 1
    38    8   34 1
    39    9   35 1
    40   10   36 1
    41   17   37 1
    42   17   38 1
    43   18   39 1
    44   18   40 1
    45   19   41 1
    46   19   42 1
    47   20   43 1
    48   20   44 1
    49   21   45 1
    50   21   46 1
    51   22   47 1
    52   22   48 1
    53   23   49 1
    54   24   50 1
    55   25   51 1
    56   26   52 1
@<TRIPOS>MOLECULE
ZINC00092235_8
   52    56     0     0     0
SMALL
USER_CHARGES

mmff94s_NoEstat = 53.72
@<TRIPOS>ATOM
      1 C1          6.1696    1.6625   -3.3876 C.ar      1 <0>        -0.0978
      2 C2         -5.5931    1.2232   -5.1079 C.ar      1 <0>        -0.0984
      3 C3          7.0967    0.6582   -3.6591 C.ar      1 <0>        -0.0943
      4 C4         -6.6557    1.5320   -4.2610 C.ar      1 <0>        -0.0957
      5 C5          4.9564    1.3657   -2.7561 C.ar      1 <0>        -0.1265
      6 C6         -4.6174    0.2959   -4.7242 C.ar      1 <0>        -0.1261
      7 C7          6.8425   -0.6711   -3.3095 C.ar      1 <0>        -0.1009
      8 C8         -6.7777    0.9262   -3.0072 C.ar      1 <0>        -0.1004
      9 C9          3.8782   -1.9542   -1.6715 C.2       1 <0>         0.0849
     10 C10        -4.5378   -1.5201   -1.5530 C.2       1 <0>         0.0824
     11 C11         4.6779    0.0326   -2.3943 C.ar      1 <0>        -0.0700
     12 C12        -4.7194   -0.3276   -3.4647 C.ar      1 <0>        -0.0695
     13 C13         3.6006   -0.6238   -1.7663 C.2       1 <0>        -0.3121
     14 C14        -3.9544   -1.2786   -2.7602 C.2       1 <0>        -0.3108
     15 C15         5.6255   -0.9530   -2.6788 C.ar      1 <0>         0.0626
     16 C16        -5.7951    0.0013   -2.6370 C.ar      1 <0>         0.0622
     17 C17        -0.1424   -0.0915   -1.0817 C.3       1 <0>         0.0793
     18 C18         0.9917   -0.9303   -3.1418 C.3       1 <0>         0.0777
     19 C19        -1.3452   -0.9655   -1.3875 C.3       1 <0>         0.0735
     20 C20        -0.2112   -1.8040   -3.4486 C.3       1 <0>         0.0792
     21 C21         2.3415    0.0283   -1.2761 C.3       1 <0>         0.2470
     22 C22        -2.6944   -1.9286   -3.2510 C.3       1 <0>         0.2493
     23 N1          5.1135   -2.1491   -2.2288 N.pl3     1 <0>        -0.5192
     24 N2         -5.6592   -0.7377   -1.4834 N.pl3     1 <0>        -0.5179
     25 N3          1.1000   -0.7329   -1.6495 N.4       1 <0>        -0.7137
     26 N4         -1.4541   -1.1645   -2.8795 N.4       1 <0>        -0.7135
     27 H1          6.3893    2.6886   -3.6693 H         1 <0>         0.1593
     28 H2         -5.5190    1.7074   -6.0777 H         1 <0>         0.1589
     29 H3          8.0328    0.9106   -4.1503 H         1 <0>         0.1682
     30 H4         -7.4024    2.2550   -4.5788 H         1 <0>         0.1676
     31 H5          4.2439    2.1596   -2.5510 H         1 <0>         0.1247
     32 H6         -3.7952    0.0655   -5.3956 H         1 <0>         0.1259
     33 H7          7.5650   -1.4520   -3.5219 H         1 <0>         0.1640
     34 H8         -7.6054    1.1679   -2.3488 H         1 <0>         0.1649
     35 H9          3.3230   -2.7875   -1.2634 H         1 <0>         0.1783
     36 H10        -4.2710   -2.1703   -0.7314 H         1 <0>         0.1787
     37 H11        -0.2330    0.9061   -1.5261 H         1 <0>         0.1444
     38 H12         0.0058    0.0018   -0.0008 H         1 <0>         0.1211
     39 H13         1.9168   -1.4131   -3.4726 H         1 <0>         0.1184
     40 H14         0.9112    0.0608   -3.6025 H         1 <0>         0.1625
     41 H15        -1.2640   -1.9562   -0.9260 H         1 <0>         0.1217
     42 H16        -2.2707   -0.4835   -1.0562 H         1 <0>         0.1444
     43 H17        -0.3596   -1.8946   -4.5294 H         1 <0>         0.1176
     44 H18        -0.1203   -2.8031   -3.0074 H         1 <0>         0.1624
     45 H19         2.3402    0.1161   -0.1844 H         1 <0>         0.1105
     46 H20         2.2300    1.0355   -1.6920 H         1 <0>         0.1015
     47 H21        -2.5802   -2.9353   -2.8349 H         1 <0>         0.1098
     48 H22        -2.6943   -2.0168   -4.3428 H         1 <0>         0.1013
     49 H23         5.5826   -3.0414   -2.3003 H         1 <0>         0.4881
     50 H24        -6.2959   -0.7062   -0.6991 H         1 <0>         0.4882
     51 H25         1.2452   -1.6500   -1.1961 H         1 <0>         0.4431
     52 H26        -1.6017   -0.2480   -3.3335 H         1 <0>         0.4430
@<TRIPOS>BOND
     1    1    3 ar
     2    1    5 ar
     3    2    4 ar
     4    2    6 ar
     5    3    7 ar
     6    4    8 ar
     7    5   11 ar
     8    6   12 ar
     9    7   15 ar
    10    8   16 ar
    11    9   13 2
    12    9   23 1
    13   10   14 2
    14   10   24 1
    15   11   13 1
    16   11   15 ar
    17   12   14 1
    18   12   16 ar
    19   13   21 1
    20   14   22 1
    21   15   23 1
    22   16   24 1
    23   17   19 1
    24   17   25 1
    25   18   20 1
    26   18   25 1
    27   19   26 1
    28   20   26 1
    29   21   25 1
    30   22   26 1
    31    1   27 1
    32    2   28 1
    33    3   29 1
    34    4   30 1
    35    5   31 1
    36    6   32 1
    37    7   33 1
    38    8   34 1
    39    9   35 1
    40   10   36 1
    41   17   37 1
    42   17   38 1
    43   18   39 1
    44   18   40 1
    45   19   41 1
    46   19   42 1
    47   20   43 1
    48   20   44 1
    49   21   45 1
    50   21   46 1
    51   22   47 1
    52   22   48 1
    53   23   49 1
    54   24   50 1
    55   25   51 1
    56   26   52 1
@<TRIPOS>MOLECULE
ZINC00092235_9
   52    56     0     0     0
SMALL
USER_CHARGES

mmff94s_NoEstat = 53.72
@<TRIPOS>ATOM
      1 C1          6.1696    1.6625   -3.3876 C.ar      1 <0>        -0.0978
      2 C2         -3.8549   -5.5375   -5.9736 C.ar      1 <0>        -0.0984
      3 C3          7.0967    0.6582   -3.6591 C.ar      1 <0>        -0.0943
      4 C4         -3.8915   -5.1946   -7.3238 C.ar      1 <0>        -0.0957
      5 C5          4.9564    1.3657   -2.7561 C.ar      1 <0>        -0.1265
      6 C6         -3.5258   -4.5858   -5.0016 C.ar      1 <0>        -0.1261
      7 C7          6.8425   -0.6711   -3.3095 C.ar      1 <0>        -0.1009
      8 C8         -3.6015   -3.8938   -7.7452 C.ar      1 <0>        -0.1004
      9 C9          3.8782   -1.9542   -1.6715 C.2       1 <0>         0.0849
     10 C10        -2.6999   -1.0839   -5.6457 C.2       1 <0>         0.0824
     11 C11         4.6779    0.0326   -2.3943 C.ar      1 <0>        -0.0700
     12 C12        -3.2296   -3.2679   -5.4026 C.ar      1 <0>        -0.0695
     13 C13         3.6006   -0.6238   -1.7663 C.2       1 <0>        -0.3121
     14 C14        -2.8688   -2.0813   -4.7333 C.2       1 <0>        -0.3108
     15 C15         5.6255   -0.9530   -2.6788 C.ar      1 <0>         0.0626
     16 C16        -3.2742   -2.9529   -6.7624 C.ar      1 <0>         0.0622
     17 C17        -0.1424   -0.0915   -1.0817 C.3       1 <0>         0.0793
     18 C18         0.9917   -0.9303   -3.1418 C.3       1 <0>         0.0777
     19 C19        -1.3452   -0.9655   -1.3875 C.3       1 <0>         0.0735
     20 C20        -0.2112   -1.8040   -3.4486 C.3       1 <0>         0.0792
     21 C21         2.3415    0.0283   -1.2761 C.3       1 <0>         0.2470
     22 C22        -2.6944   -1.9286   -3.2510 C.3       1 <0>         0.2493
     23 N1          5.1135   -2.1491   -2.2288 N.pl3     1 <0>        -0.5192
     24 N2         -2.9484   -1.6206   -6.8805 N.pl3     1 <0>        -0.5179
     25 N3          1.1000   -0.7329   -1.6495 N.4       1 <0>        -0.7137
     26 N4         -1.4541   -1.1645   -2.8795 N.4       1 <0>        -0.7135
     27 H1          6.3893    2.6886   -3.6693 H         1 <0>         0.1593
     28 H2         -4.0836   -6.5554   -5.6701 H         1 <0>         0.1589
     29 H3          8.0328    0.9106   -4.1503 H         1 <0>         0.1682
     30 H4         -4.1496   -5.9492   -8.0621 H         1 <0>         0.1676
     31 H5          4.2439    2.1596   -2.5510 H         1 <0>         0.1247
     32 H6         -3.5017   -4.8684   -3.9530 H         1 <0>         0.1259
     33 H7          7.5650   -1.4520   -3.5219 H         1 <0>         0.1640
     34 H8         -3.6301   -3.6284   -8.7967 H         1 <0>         0.1649
     35 H9          3.3230   -2.7875   -1.2634 H         1 <0>         0.1783
     36 H10        -2.4272   -0.0424   -5.5453 H         1 <0>         0.1787
     37 H11        -0.2330    0.9061   -1.5261 H         1 <0>         0.1444
     38 H12         0.0058    0.0018   -0.0008 H         1 <0>         0.1211
     39 H13         1.9168   -1.4131   -3.4726 H         1 <0>         0.1184
     40 H14         0.9112    0.0608   -3.6025 H         1 <0>         0.1625
     41 H15        -1.2640   -1.9562   -0.9260 H         1 <0>         0.1217
     42 H16        -2.2707   -0.4835   -1.0562 H         1 <0>         0.1444
     43 H17        -0.3596   -1.8946   -4.5294 H         1 <0>         0.1176
     44 H18        -0.1203   -2.8031   -3.0074 H         1 <0>         0.1624
     45 H19         2.3402    0.1161   -0.1844 H         1 <0>         0.1105
     46 H20         2.2300    1.0355   -1.6920 H         1 <0>         0.1015
     47 H21        -3.5394   -1.3921   -2.8061 H         1 <0>         0.1098
     48 H22        -2.6221   -2.9043   -2.7587 H         1 <0>         0.1013
     49 H23         5.5826   -3.0414   -2.3003 H         1 <0>         0.4881
     50 H24        -2.9000   -1.1131   -7.7532 H         1 <0>         0.4882
     51 H25         1.2452   -1.6500   -1.1961 H         1 <0>         0.4431
     52 H26        -1.6017   -0.2480   -3.3335 H         1 <0>         0.4430
@<TRIPOS>BOND
     1    1    3 ar
     2    1    5 ar
     3    2    4 ar
     4    2    6 ar
     5    3    7 ar
     6    4    8 ar
     7    5   11 ar
     8    6   12 ar
     9    7   15 ar
    10    8   16 ar
    11    9   13 2
    12    9   23 1
    13   10   14 2
    14   10   24 1
    15   11   13 1
    16   11   15 ar
    17   12   14 1
    18   12   16 ar
    19   13   21 1
    20   14   22 1
    21   15   23 1
    22   16   24 1
    23   17   19 1
    24   17   25 1
    25   18   20 1
    26   18   25 1
    27   19   26 1
    28   20   26 1
    29   21   25 1
    30   22   26 1
    31    1   27 1
    32    2   28 1
    33    3   29 1
    34    4   30 1
    35    5   31 1
    36    6   32 1
    37    7   33 1
    38    8   34 1
    39    9   35 1
    40   10   36 1
    41   17   37 1
    42   17   38 1
    43   18   39 1
    44   18   40 1
    45   19   41 1
    46   19   42 1
    47   20   43 1
    48   20   44 1
    49   21   45 1
    50   21   46 1
    51   22   47 1
    52   22   48 1
    53   23   49 1
    54   24   50 1
    55   25   51 1
    56   26   52 1
@<TRIPOS>MOLECULE
ZINC00092235_10
   52    56     0     0     0
SMALL
USER_CHARGES

mmff94s_NoEstat = 54.70
@<TRIPOS>ATOM
      1 C1          0.9531    3.2650    1.7865 C.ar      1 <0>        -0.0978
      2 C2         -5.1575   -2.3143    0.6946 C.ar      1 <0>        -0.0984
      3 C3          1.3586    2.9744    3.0876 C.ar      1 <0>        -0.0943
      4 C4         -6.2838   -1.4939    0.7006 C.ar      1 <0>        -0.0957
      5 C5          1.2759    2.4088    0.7274 C.ar      1 <0>        -0.1265
      6 C6         -4.2930   -2.3363   -0.4059 C.ar      1 <0>        -0.1261
      7 C7          2.0974    1.8223    3.3719 C.ar      1 <0>        -0.1009
      8 C8         -6.5820   -0.6712   -0.3895 C.ar      1 <0>        -0.1004
      9 C9          3.1818   -0.6976    1.0075 C.2       1 <0>         0.0849
     10 C10        -4.6815   -0.3610   -3.4568 C.2       1 <0>         0.0824
     11 C11         2.0200    1.2413    0.9898 C.ar      1 <0>        -0.0700
     12 C12        -4.5733   -1.5155   -1.5165 C.ar      1 <0>        -0.0695
     13 C13         2.5148    0.1795    0.2065 C.2       1 <0>        -0.3121
     14 C14        -3.9544   -1.2786   -2.7602 C.2       1 <0>        -0.3108
     15 C15         2.4128    0.9756    2.3033 C.ar      1 <0>         0.0626
     16 C16        -5.7090   -0.7036   -1.4827 C.ar      1 <0>         0.0622
     17 C17        -0.1424   -0.0915   -1.0817 C.3       1 <0>         0.0793
     18 C18         0.9917   -0.9303   -3.1418 C.3       1 <0>         0.0777
     19 C19        -1.3452   -0.9655   -1.3875 C.3       1 <0>         0.0735
     20 C20        -0.2112   -1.8040   -3.4486 C.3       1 <0>         0.0792
     21 C21         2.3415    0.0283   -1.2761 C.3       1 <0>         0.2470
     22 C22        -2.6944   -1.9286   -3.2510 C.3       1 <0>         0.2493
     23 N1          3.1163   -0.2076    2.2843 N.pl3     1 <0>        -0.5192
     24 N2         -5.7494   -0.0139   -2.6734 N.pl3     1 <0>        -0.5179
     25 N3          1.1000   -0.7329   -1.6495 N.4       1 <0>        -0.7137
     26 N4         -1.4541   -1.1645   -2.8795 N.4       1 <0>        -0.7135
     27 H1          0.3800    4.1669    1.5898 H         1 <0>         0.1593
     28 H2         -4.9465   -2.9456    1.5534 H         1 <0>         0.1589
     29 H3          1.0971    3.6529    3.8953 H         1 <0>         0.1682
     30 H4         -6.9418   -1.4921    1.5656 H         1 <0>         0.1676
     31 H5          0.9524    2.6490   -0.2813 H         1 <0>         0.1247
     32 H6         -3.4189   -2.9811   -0.3954 H         1 <0>         0.1259
     33 H7          2.4127    1.5975    4.3853 H         1 <0>         0.1640
     34 H8         -7.4595   -0.0333   -0.3836 H         1 <0>         0.1649
     35 H9          3.6993   -1.6244    0.8017 H         1 <0>         0.1783
     36 H10        -4.5503    0.0840   -4.4335 H         1 <0>         0.1787
     37 H11        -0.2330    0.9061   -1.5261 H         1 <0>         0.1444
     38 H12         0.0058    0.0018   -0.0008 H         1 <0>         0.1211
     39 H13         1.9168   -1.4131   -3.4726 H         1 <0>         0.1184
     40 H14         0.9112    0.0608   -3.6025 H         1 <0>         0.1625
     41 H15        -1.2640   -1.9562   -0.9260 H         1 <0>         0.1217
     42 H16        -2.2707   -0.4835   -1.0562 H         1 <0>         0.1444
     43 H17        -0.3596   -1.8946   -4.5294 H         1 <0>         0.1176
     44 H18        -0.1203   -2.8031   -3.0074 H         1 <0>         0.1624
     45 H19         2.2719    1.0044   -1.7682 H         1 <0>         0.1105
     46 H20         3.1859   -0.5098   -1.7202 H         1 <0>         0.1015
     47 H21        -2.5802   -2.9353   -2.8349 H         1 <0>         0.1098
     48 H22        -2.6943   -2.0168   -4.3428 H         1 <0>         0.1013
     49 H23         3.5249   -0.6496    3.0961 H         1 <0>         0.4881
     50 H24        -6.4647    0.6521   -2.9310 H         1 <0>         0.4882
     51 H25         1.2452   -1.6500   -1.1961 H         1 <0>         0.4431
     52 H26        -1.6017   -0.2480   -3.3335 H         1 <0>         0.4430
@<TRIPOS>BOND
     1    1    3 ar
     2    1    5 ar
     3    2    4 ar
     4    2    6 ar
     5    3    7 ar
     6    4    8 ar
     7    5   11 ar
     8    6   12 ar
     9    7   15 ar
    10    8   16 ar
    11    9   13 2
    12    9   23 1
    13   10   14 2
    14   10   24 1
    15   11   13 1
    16   11   15 ar
    17   12   14 1
    18   12   16 ar
    19   13   21 1
    20   14   22 1
    21   15   23 1
    22   16   24 1
    23   17   19 1
    24   17   25 1
    25   18   20 1
    26   18   25 1
    27   19   26 1
    28   20   26 1
    29   21   25 1
    30   22   26 1
    31    1   27 1
    32    2   28 1
    33    3   29 1
    34    4   30 1
    35    5   31 1
    36    6   32 1
    37    7   33 1
    38    8   34 1
    39    9   35 1
    40   10   36 1
    41   17   37 1
    42   17   38 1
    43   18   39 1
    44   18   40 1
    45   19   41 1
    46   19   42 1
    47   20   43 1
    48   20   44 1
    49   21   45 1
    50   21   46 1
    51   22   47 1
    52   22   48 1
    53   23   49 1
    54   24   50 1
    55   25   51 1
    56   26   52 1
@<TRIPOS>MOLECULE
ZINC00092235_11
   52    56     0     0     0
SMALL
USER_CHARGES

mmff94s_NoEstat = 54.73
@<TRIPOS>ATOM
      1 C1          4.8065    0.4088   -5.2210 C.ar      1 <0>        -0.0978
      2 C2         -1.2984   -5.1625   -6.3131 C.ar      1 <0>        -0.0984
      3 C3          5.9310   -0.4142   -5.2267 C.ar      1 <0>        -0.0943
      4 C4         -1.7054   -4.8736   -7.6141 C.ar      1 <0>        -0.0957
      5 C5          3.9420    0.4329   -4.1206 C.ar      1 <0>        -0.1265
      6 C6         -1.6234   -4.3069   -5.2541 C.ar      1 <0>        -0.1261
      7 C7          6.2273   -1.2373   -4.1365 C.ar      1 <0>        -0.1009
      8 C8         -2.4480   -3.7240   -7.8984 C.ar      1 <0>        -0.1004
      9 C9          4.3252   -1.5435   -1.0697 C.2       1 <0>         0.0849
     10 C10        -3.5385   -1.2063   -5.5345 C.2       1 <0>         0.0824
     11 C11         4.2202   -0.3884   -3.0099 C.ar      1 <0>        -0.0700
     12 C12        -2.3712   -3.1419   -5.5165 C.ar      1 <0>        -0.0695
     13 C13         3.6006   -0.6238   -1.7663 C.2       1 <0>        -0.3121
     14 C14        -2.8688   -2.0813   -4.7333 C.2       1 <0>        -0.3108
     15 C15         5.3541   -1.2029   -3.0434 C.ar      1 <0>         0.0626
     16 C16        -2.7655   -2.8779   -6.8300 C.ar      1 <0>         0.0622
     17 C17        -0.1424   -0.0915   -1.0817 C.3       1 <0>         0.0793
     18 C18         0.9917   -0.9303   -3.1418 C.3       1 <0>         0.0777
     19 C19        -1.3452   -0.9655   -1.3875 C.3       1 <0>         0.0735
     20 C20        -0.2112   -1.8040   -3.4486 C.3       1 <0>         0.0792
     21 C21         2.3415    0.0283   -1.2761 C.3       1 <0>         0.2470
     22 C22        -2.6944   -1.9286   -3.2510 C.3       1 <0>         0.2493
     23 N1          5.3927   -1.8926   -1.8526 N.pl3     1 <0>        -0.5192
     24 N2         -3.4725   -1.6968   -6.8110 N.pl3     1 <0>        -0.5179
     25 N3          1.1000   -0.7329   -1.6495 N.4       1 <0>        -0.7137
     26 N4         -1.4541   -1.1645   -2.8795 N.4       1 <0>        -0.7135
     27 H1          4.5965    1.0395   -6.0804 H         1 <0>         0.1593
     28 H2         -0.7214   -6.0620   -6.1165 H         1 <0>         0.1589
     29 H3          6.5892   -0.4174   -6.0916 H         1 <0>         0.1682
     30 H4         -1.4424   -5.5517   -8.4216 H         1 <0>         0.1676
     31 H5          3.0696    1.0800   -4.1311 H         1 <0>         0.1247
     32 H6         -1.2990   -4.5460   -4.2454 H         1 <0>         0.1259
     33 H7          7.1029   -1.8778   -4.1424 H         1 <0>         0.1640
     34 H8         -2.7639   -3.5001   -8.9119 H         1 <0>         0.1649
     35 H9          4.1923   -1.9887   -0.0934 H         1 <0>         0.1783
     36 H10        -4.0580   -0.2805   -5.3289 H         1 <0>         0.1787
     37 H11        -0.2330    0.9061   -1.5261 H         1 <0>         0.1444
     38 H12         0.0058    0.0018   -0.0008 H         1 <0>         0.1211
     39 H13         1.9168   -1.4131   -3.4726 H         1 <0>         0.1184
     40 H14         0.9112    0.0608   -3.6025 H         1 <0>         0.1625
     41 H15        -1.2640   -1.9562   -0.9260 H         1 <0>         0.1217
     42 H16        -2.2707   -0.4835   -1.0562 H         1 <0>         0.1444
     43 H17        -0.3596   -1.8946   -4.5294 H         1 <0>         0.1176
     44 H18        -0.1203   -2.8031   -3.0074 H         1 <0>         0.1624
     45 H19         2.3402    0.1161   -0.1844 H         1 <0>         0.1105
     46 H20         2.2300    1.0355   -1.6920 H         1 <0>         0.1015
     47 H21        -3.5394   -1.3921   -2.8061 H         1 <0>         0.1098
     48 H22        -2.6221   -2.9043   -2.7587 H         1 <0>         0.1013
     49 H23         6.1065   -2.5602   -1.5949 H         1 <0>         0.4881
     50 H24        -3.8830   -1.2564   -7.6228 H         1 <0>         0.4882
     51 H25         1.2452   -1.6500   -1.1961 H         1 <0>         0.4431
     52 H26        -1.6017   -0.2480   -3.3335 H         1 <0>         0.4430
@<TRIPOS>BOND
     1    1    3 ar
     2    1    5 ar
     3    2    4 ar
     4    2    6 ar
     5    3    7 ar
     6    4    8 ar
     7    5   11 ar
     8    6   12 ar
     9    7   15 ar
    10    8   16 ar
    11    9   13 2
    12    9   23 1
    13   10   14 2
    14   10   24 1
    15   11   13 1
    16   11   15 ar
    17   12   14 1
    18   12   16 ar
    19   13   21 1
    20   14   22 1
    21   15   23 1
    22   16   24 1
    23   17   19 1
    24   17   25 1
    25   18   20 1
    26   18   25 1
    27   19   26 1
    28   20   26 1
    29   21   25 1
    30   22   26 1
    31    1   27 1
    32    2   28 1
    33    3   29 1
    34    4   30 1
    35    5   31 1
    36    6   32 1
    37    7   33 1
    38    8   34 1
    39    9   35 1
    40   10   36 1
    41   17   37 1
    42   17   38 1
    43   18   39 1
    44   18   40 1
    45   19   41 1
    46   19   42 1
    47   20   43 1
    48   20   44 1
    49   21   45 1
    50   21   46 1
    51   22   47 1
    52   22   48 1
    53   23   49 1
    54   24   50 1
    55   25   51 1
    56   26   52 1
@<TRIPOS>MOLECULE
ZINC00092235_12
   52    56     0     0     0
SMALL
USER_CHARGES

mmff94s_NoEstat = 54.86
@<TRIPOS>ATOM
      1 C1          3.9409    1.8505   -5.2643 C.ar      1 <0>        -0.0978
      2 C2         -5.5931    1.2232   -5.1079 C.ar      1 <0>        -0.0984
      3 C3          3.7379    3.2270   -5.3388 C.ar      1 <0>        -0.0943
      4 C4         -6.6557    1.5320   -4.2610 C.ar      1 <0>        -0.0957
      5 C5          3.5271    1.1252   -4.1410 C.ar      1 <0>        -0.1265
      6 C6         -4.6174    0.2959   -4.7242 C.ar      1 <0>        -0.1261
      7 C7          3.1167    3.9215   -4.2969 C.ar      1 <0>        -0.1009
      8 C8         -6.7777    0.9262   -3.0072 C.ar      1 <0>        -0.1004
      9 C9          1.8707    2.5224   -1.1975 C.2       1 <0>         0.0849
     10 C10        -4.5378   -1.5201   -1.5530 C.2       1 <0>         0.0824
     11 C11         2.8986    1.8037   -3.0780 C.ar      1 <0>        -0.0700
     12 C12        -4.7194   -0.3276   -3.4647 C.ar      1 <0>        -0.0695
     13 C13         2.3654    1.4222   -1.8306 C.2       1 <0>        -0.3121
     14 C14        -3.9544   -1.2786   -2.7602 C.2       1 <0>        -0.3108
     15 C15         2.7083    3.1834   -3.1803 C.ar      1 <0>         0.0626
     16 C16        -5.7951    0.0013   -2.6370 C.ar      1 <0>         0.0622
     17 C17        -0.1424   -0.0915   -1.0817 C.3       1 <0>         0.0793
     18 C18         0.9917   -0.9303   -3.1418 C.3       1 <0>         0.0777
     19 C19        -1.3452   -0.9655   -1.3875 C.3       1 <0>         0.0735
     20 C20        -0.2112   -1.8040   -3.4486 C.3       1 <0>         0.0792
     21 C21         2.3415    0.0283   -1.2761 C.3       1 <0>         0.2470
     22 C22        -2.6944   -1.9286   -3.2510 C.3       1 <0>         0.2493
     23 N1          2.0820    3.5927   -2.0246 N.pl3     1 <0>        -0.5192
     24 N2         -5.6592   -0.7377   -1.4834 N.pl3     1 <0>        -0.5179
     25 N3          1.1000   -0.7329   -1.6495 N.4       1 <0>        -0.7137
     26 N4         -1.4541   -1.1645   -2.8795 N.4       1 <0>        -0.7135
     27 H1          4.4266    1.3324   -6.0866 H         1 <0>         0.1593
     28 H2         -5.5190    1.7074   -6.0777 H         1 <0>         0.1589
     29 H3          4.0670    3.7709   -6.2204 H         1 <0>         0.1682
     30 H4         -7.4024    2.2550   -4.5788 H         1 <0>         0.1676
     31 H5          3.6922    0.0524   -4.0979 H         1 <0>         0.1247
     32 H6         -3.7952    0.0655   -5.3956 H         1 <0>         0.1259
     33 H7          2.9596    4.9933   -4.3562 H         1 <0>         0.1640
     34 H8         -7.6054    1.1679   -2.3488 H         1 <0>         0.1649
     35 H9          1.3876    2.6567   -0.2395 H         1 <0>         0.1783
     36 H10        -4.2710   -2.1703   -0.7314 H         1 <0>         0.1787
     37 H11        -0.2330    0.9061   -1.5261 H         1 <0>         0.1444
     38 H12         0.0058    0.0018   -0.0008 H         1 <0>         0.1211
     39 H13         1.9168   -1.4131   -3.4726 H         1 <0>         0.1184
     40 H14         0.9112    0.0608   -3.6025 H         1 <0>         0.1625
     41 H15        -1.2640   -1.9562   -0.9260 H         1 <0>         0.1217
     42 H16        -2.2707   -0.4835   -1.0562 H         1 <0>         0.1444
     43 H17        -0.3596   -1.8946   -4.5294 H         1 <0>         0.1176
     44 H18        -0.1203   -2.8031   -3.0074 H         1 <0>         0.1624
     45 H19         3.1916   -0.5578   -1.6415 H         1 <0>         0.1105
     46 H20         2.3879    0.0371   -0.1818 H         1 <0>         0.1015
     47 H21        -2.5802   -2.9353   -2.8349 H         1 <0>         0.1098
     48 H22        -2.6943   -2.0168   -4.3428 H         1 <0>         0.1013
     49 H23         1.8173    4.5459   -1.8178 H         1 <0>         0.4881
     50 H24        -6.2959   -0.7062   -0.6991 H         1 <0>         0.4882
     51 H25         1.2452   -1.6500   -1.1961 H         1 <0>         0.4431
     52 H26        -1.6017   -0.2480   -3.3335 H         1 <0>         0.4430
@<TRIPOS>BOND
     1    1    3 ar
     2    1    5 ar
     3    2    4 ar
     4    2    6 ar
     5    3    7 ar
     6    4    8 ar
     7    5   11 ar
     8    6   12 ar
     9    7   15 ar
    10    8   16 ar
    11    9   13 2
    12    9   23 1
    13   10   14 2
    14   10   24 1
    15   11   13 1
    16   11   15 ar
    17   12   14 1
    18   12   16 ar
    19   13   21 1
    20   14   22 1
    21   15   23 1
    22   16   24 1
    23   17   19 1
    24   17   25 1
    25   18   20 1
    26   18   25 1
    27   19   26 1
    28   20   26 1
    29   21   25 1
    30   22   26 1
    31    1   27 1
    32    2   28 1
    33    3   29 1
    34    4   30 1
    35    5   31 1
    36    6   32 1
    37    7   33 1
    38    8   34 1
    39    9   35 1
    40   10   36 1
    41   17   37 1
    42   17   38 1
    43   18   39 1
    44   18   40 1
    45   19   41 1
    46   19   42 1
    47   20   43 1
    48   20   44 1
    49   21   45 1
    50   21   46 1
    51   22   47 1
    52   22   48 1
    53   23   49 1
    54   24   50 1
    55   25   51 1
    56   26   52 1
@<TRIPOS>MOLECULE
ZINC00092235_13
   52    56     0     0     0
SMALL
USER_CHARGES

mmff94s_NoEstat = 54.86
@<TRIPOS>ATOM
      1 C1          0.8439    4.1378    0.3526 C.ar      1 <0>        -0.0978
      2 C2         -4.8326    0.6554   -6.4968 C.ar      1 <0>        -0.0984
      3 C3          1.0885    5.1829   -0.5360 C.ar      1 <0>        -0.0943
      4 C4         -4.7286    0.1011   -7.7710 C.ar      1 <0>        -0.0957
      5 C5          1.2228    2.8274    0.0391 C.ar      1 <0>        -0.1265
      6 C6         -4.2530    0.0229   -5.3909 C.ar      1 <0>        -0.1261
      7 C7          1.7177    4.9534   -1.7629 C.ar      1 <0>        -0.1009
      8 C8         -4.0442   -1.0995   -7.9811 C.ar      1 <0>        -0.1004
      9 C9          2.8851    1.7719   -3.0404 C.2       1 <0>         0.0849
     10 C10        -2.3806   -3.1153   -5.4740 C.2       1 <0>         0.0824
     11 C11         1.8586    2.5717   -1.1921 C.ar      1 <0>        -0.0700
     12 C12        -3.5580   -1.1885   -5.5782 C.ar      1 <0>        -0.0695
     13 C13         2.3654    1.4222   -1.8306 C.2       1 <0>        -0.3121
     14 C14        -2.8688   -2.0813   -4.7333 C.2       1 <0>        -0.3108
     15 C15         2.0909    3.6385   -2.0630 C.ar      1 <0>         0.0626
     16 C16        -3.4698   -1.7206   -6.8664 C.ar      1 <0>         0.0622
     17 C17        -0.1424   -0.0915   -1.0817 C.3       1 <0>         0.0793
     18 C18         0.9917   -0.9303   -3.1418 C.3       1 <0>         0.0777
     19 C19        -1.3452   -0.9655   -1.3875 C.3       1 <0>         0.0735
     20 C20        -0.2112   -1.8040   -3.4486 C.3       1 <0>         0.0792
     21 C21         2.3415    0.0283   -1.2761 C.3       1 <0>         0.2470
     22 C22        -2.6944   -1.9286   -3.2510 C.3       1 <0>         0.2493
     23 N1          2.7153    3.1236   -3.1766 N.pl3     1 <0>        -0.5192
     24 N2         -2.7496   -2.8901   -6.7731 N.pl3     1 <0>        -0.5179
     25 N3          1.1000   -0.7329   -1.6495 N.4       1 <0>        -0.7137
     26 N4         -1.4541   -1.1645   -2.8795 N.4       1 <0>        -0.7135
     27 H1          0.3528    4.3406    1.3004 H         1 <0>         0.1593
     28 H2         -5.3702    1.5894   -6.3580 H         1 <0>         0.1589
     29 H3          0.7861    6.1930   -0.2726 H         1 <0>         0.1682
     30 H4         -5.1861    0.6089   -8.6160 H         1 <0>         0.1676
     31 H5          1.0254    2.0234    0.7424 H         1 <0>         0.1247
     32 H6         -4.3425    0.4676   -4.4039 H         1 <0>         0.1259
     33 H7          1.9072    5.7680   -2.4540 H         1 <0>         0.1640
     34 H8         -3.9644   -1.5300   -8.9736 H         1 <0>         0.1649
     35 H9          3.3606    1.1973   -3.8232 H         1 <0>         0.1783
     36 H10        -1.8060   -3.9927   -5.2113 H         1 <0>         0.1787
     37 H11        -0.2330    0.9061   -1.5261 H         1 <0>         0.1444
     38 H12         0.0058    0.0018   -0.0008 H         1 <0>         0.1211
     39 H13         1.9168   -1.4131   -3.4726 H         1 <0>         0.1184
     40 H14         0.9112    0.0608   -3.6025 H         1 <0>         0.1625
     41 H15        -1.2640   -1.9562   -0.9260 H         1 <0>         0.1217
     42 H16        -2.2707   -0.4835   -1.0562 H         1 <0>         0.1444
     43 H17        -0.3596   -1.8946   -4.5294 H         1 <0>         0.1176
     44 H18        -0.1203   -2.8031   -3.0074 H         1 <0>         0.1624
     45 H19         3.1916   -0.5578   -1.6415 H         1 <0>         0.1105
     46 H20         2.3879    0.0371   -0.1818 H         1 <0>         0.1015
     47 H21        -3.5394   -1.3921   -2.8061 H         1 <0>         0.1098
     48 H22        -2.6221   -2.9043   -2.7587 H         1 <0>         0.1013
     49 H23         3.0058    3.6661   -3.9784 H         1 <0>         0.4881
     50 H24        -2.5263   -3.4944   -7.5518 H         1 <0>         0.4882
     51 H25         1.2452   -1.6500   -1.1961 H         1 <0>         0.4431
     52 H26        -1.6017   -0.2480   -3.3335 H         1 <0>         0.4430
@<TRIPOS>BOND
     1    1    3 ar
     2    1    5 ar
     3    2    4 ar
     4    2    6 ar
     5    3    7 ar
     6    4    8 ar
     7    5   11 ar
     8    6   12 ar
     9    7   15 ar
    10    8   16 ar
    11    9   13 2
    12    9   23 1
    13   10   14 2
    14   10   24 1
    15   11   13 1
    16   11   15 ar
    17   12   14 1
    18   12   16 ar
    19   13   21 1
    20   14   22 1
    21   15   23 1
    22   16   24 1
    23   17   19 1
    24   17   25 1
    25   18   20 1
    26   18   25 1
    27   19   26 1
    28   20   26 1
    29   21   25 1
    30   22   26 1
    31    1   27 1
    32    2   28 1
    33    3   29 1
    34    4   30 1
    35    5   31 1
    36    6   32 1
    37    7   33 1
    38    8   34 1
    39    9   35 1
    40   10   36 1
    41   17   37 1
    42   17   38 1
    43   18   39 1
    44   18   40 1
    45   19   41 1
    46   19   42 1
    47   20   43 1
    48   20   44 1
    49   21   45 1
    50   21   46 1
    51   22   47 1
    52   22   48 1
    53   23   49 1
    54   24   50 1
    55   25   51 1
    56   26   52 1
@<TRIPOS>MOLECULE
ZINC00092235_14
   52    56     0     0     0
SMALL
USER_CHARGES

mmff94s_NoEstat = 54.87
@<TRIPOS>ATOM
      1 C1          3.9409    1.8505   -5.2643 C.ar      1 <0>        -0.0978
      2 C2         -3.8549   -5.5375   -5.9736 C.ar      1 <0>        -0.0984
      3 C3          3.7379    3.2270   -5.3388 C.ar      1 <0>        -0.0943
      4 C4         -3.8915   -5.1946   -7.3238 C.ar      1 <0>        -0.0957
      5 C5          3.5271    1.1252   -4.1410 C.ar      1 <0>        -0.1265
      6 C6         -3.5258   -4.5858   -5.0016 C.ar      1 <0>        -0.1261
      7 C7          3.1167    3.9215   -4.2969 C.ar      1 <0>        -0.1009
      8 C8         -3.6015   -3.8938   -7.7452 C.ar      1 <0>        -0.1004
      9 C9          1.8707    2.5224   -1.1975 C.2       1 <0>         0.0849
     10 C10        -2.6999   -1.0839   -5.6457 C.2       1 <0>         0.0824
     11 C11         2.8986    1.8037   -3.0780 C.ar      1 <0>        -0.0700
     12 C12        -3.2296   -3.2679   -5.4026 C.ar      1 <0>        -0.0695
     13 C13         2.3654    1.4222   -1.8306 C.2       1 <0>        -0.3121
     14 C14        -2.8688   -2.0813   -4.7333 C.2       1 <0>        -0.3108
     15 C15         2.7083    3.1834   -3.1803 C.ar      1 <0>         0.0626
     16 C16        -3.2742   -2.9529   -6.7624 C.ar      1 <0>         0.0622
     17 C17        -0.1424   -0.0915   -1.0817 C.3       1 <0>         0.0793
     18 C18         0.9917   -0.9303   -3.1418 C.3       1 <0>         0.0777
     19 C19        -1.3452   -0.9655   -1.3875 C.3       1 <0>         0.0735
     20 C20        -0.2112   -1.8040   -3.4486 C.3       1 <0>         0.0792
     21 C21         2.3415    0.0283   -1.2761 C.3       1 <0>         0.2470
     22 C22        -2.6944   -1.9286   -3.2510 C.3       1 <0>         0.2493
     23 N1          2.0820    3.5927   -2.0246 N.pl3     1 <0>        -0.5192
     24 N2         -2.9484   -1.6206   -6.8805 N.pl3     1 <0>        -0.5179
     25 N3          1.1000   -0.7329   -1.6495 N.4       1 <0>        -0.7137
     26 N4         -1.4541   -1.1645   -2.8795 N.4       1 <0>        -0.7135
     27 H1          4.4266    1.3324   -6.0866 H         1 <0>         0.1593
     28 H2         -4.0836   -6.5554   -5.6701 H         1 <0>         0.1589
     29 H3          4.0670    3.7709   -6.2204 H         1 <0>         0.1682
     30 H4         -4.1496   -5.9492   -8.0621 H         1 <0>         0.1676
     31 H5          3.6922    0.0524   -4.0979 H         1 <0>         0.1247
     32 H6         -3.5017   -4.8684   -3.9530 H         1 <0>         0.1259
     33 H7          2.9596    4.9933   -4.3562 H         1 <0>         0.1640
     34 H8         -3.6301   -3.6284   -8.7967 H         1 <0>         0.1649
     35 H9          1.3876    2.6567   -0.2395 H         1 <0>         0.1783
     36 H10        -2.4272   -0.0424   -5.5453 H         1 <0>         0.1787
     37 H11        -0.2330    0.9061   -1.5261 H         1 <0>         0.1444
     38 H12         0.0058    0.0018   -0.0008 H         1 <0>         0.1211
     39 H13         1.9168   -1.4131   -3.4726 H         1 <0>         0.1184
     40 H14         0.9112    0.0608   -3.6025 H         1 <0>         0.1625
     41 H15        -1.2640   -1.9562   -0.9260 H         1 <0>         0.1217
     42 H16        -2.2707   -0.4835   -1.0562 H         1 <0>         0.1444
     43 H17        -0.3596   -1.8946   -4.5294 H         1 <0>         0.1176
     44 H18        -0.1203   -2.8031   -3.0074 H         1 <0>         0.1624
     45 H19         3.1916   -0.5578   -1.6415 H         1 <0>         0.1105
     46 H20         2.3879    0.0371   -0.1818 H         1 <0>         0.1015
     47 H21        -3.5394   -1.3921   -2.8061 H         1 <0>         0.1098
     48 H22        -2.6221   -2.9043   -2.7587 H         1 <0>         0.1013
     49 H23         1.8173    4.5459   -1.8178 H         1 <0>         0.4881
     50 H24        -2.9000   -1.1131   -7.7532 H         1 <0>         0.4882
     51 H25         1.2452   -1.6500   -1.1961 H         1 <0>         0.4431
     52 H26        -1.6017   -0.2480   -3.3335 H         1 <0>         0.4430
@<TRIPOS>BOND
     1    1    3 ar
     2    1    5 ar
     3    2    4 ar
     4    2    6 ar
     5    3    7 ar
     6    4    8 ar
     7    5   11 ar
     8    6   12 ar
     9    7   15 ar
    10    8   16 ar
    11    9   13 2
    12    9   23 1
    13   10   14 2
    14   10   24 1
    15   11   13 1
    16   11   15 ar
    17   12   14 1
    18   12   16 ar
    19   13   21 1
    20   14   22 1
    21   15   23 1
    22   16   24 1
    23   17   19 1
    24   17   25 1
    25   18   20 1
    26   18   25 1
    27   19   26 1
    28   20   26 1
    29   21   25 1
    30   22   26 1
    31    1   27 1
    32    2   28 1
    33    3   29 1
    34    4   30 1
    35    5   31 1
    36    6   32 1
    37    7   33 1
    38    8   34 1
    39    9   35 1
    40   10   36 1
    41   17   37 1
    42   17   38 1
    43   18   39 1
    44   18   40 1
    45   19   41 1
    46   19   42 1
    47   20   43 1
    48   20   44 1
    49   21   45 1
    50   21   46 1
    51   22   47 1
    52   22   48 1
    53   23   49 1
    54   24   50 1
    55   25   51 1
    56   26   52 1
@<TRIPOS>MOLECULE
ZINC00092235_15
   52    56     0     0     0
SMALL
USER_CHARGES

mmff94s_NoEstat = 54.88
@<TRIPOS>ATOM
      1 C1          0.8439    4.1378    0.3526 C.ar      1 <0>        -0.0978
      2 C2         -6.5192   -3.5695   -1.1387 C.ar      1 <0>        -0.0984
      3 C3          1.0885    5.1829   -0.5360 C.ar      1 <0>        -0.0943
      4 C4         -7.4483   -2.5669   -0.8675 C.ar      1 <0>        -0.0957
      5 C5          1.2228    2.8274    0.0391 C.ar      1 <0>        -0.1265
      6 C6         -5.3064   -3.2705   -1.7701 C.ar      1 <0>        -0.1261
      7 C7          1.7177    4.9534   -1.7629 C.ar      1 <0>        -0.1009
      8 C8         -7.1964   -1.2372   -1.2172 C.ar      1 <0>        -0.1004
      9 C9          2.8851    1.7719   -3.0404 C.2       1 <0>         0.0849
     10 C10        -4.2348    0.0512   -2.8558 C.2       1 <0>         0.0824
     11 C11         1.8586    2.5717   -1.1921 C.ar      1 <0>        -0.0700
     12 C12        -5.0305   -1.9369   -2.1321 C.ar      1 <0>        -0.0695
     13 C13         2.3654    1.4222   -1.8306 C.2       1 <0>        -0.3121
     14 C14        -3.9544   -1.2786   -2.7602 C.2       1 <0>        -0.3108
     15 C15         2.0909    3.6385   -2.0630 C.ar      1 <0>         0.0626
     16 C16        -5.9799   -0.9531   -1.8478 C.ar      1 <0>         0.0622
     17 C17        -0.1424   -0.0915   -1.0817 C.3       1 <0>         0.0793
     18 C18         0.9917   -0.9303   -3.1418 C.3       1 <0>         0.0777
     19 C19        -1.3452   -0.9655   -1.3875 C.3       1 <0>         0.0735
     20 C20        -0.2112   -1.8040   -3.4486 C.3       1 <0>         0.0792
     21 C21         2.3415    0.0283   -1.2761 C.3       1 <0>         0.2470
     22 C22        -2.6944   -1.9286   -3.2510 C.3       1 <0>         0.2493
     23 N1          2.7153    3.1236   -3.1766 N.pl3     1 <0>        -0.5192
     24 N2         -5.4702    0.2439   -2.2981 N.pl3     1 <0>        -0.5179
     25 N3          1.1000   -0.7329   -1.6495 N.4       1 <0>        -0.7137
     26 N4         -1.4541   -1.1645   -2.8795 N.4       1 <0>        -0.7135
     27 H1          0.3528    4.3406    1.3004 H         1 <0>         0.1593
     28 H2         -6.7375   -4.5962   -0.8580 H         1 <0>         0.1589
     29 H3          0.7861    6.1930   -0.2726 H         1 <0>         0.1682
     30 H4         -8.3838   -2.8210   -0.3762 H         1 <0>         0.1676
     31 H5          1.0254    2.0234    0.7424 H         1 <0>         0.1247
     32 H6         -4.5923   -4.0630   -1.9746 H         1 <0>         0.1259
     33 H7          1.9072    5.7680   -2.4540 H         1 <0>         0.1640
     34 H8         -7.9208   -0.4578   -1.0057 H         1 <0>         0.1649
     35 H9          3.3606    1.1973   -3.8232 H         1 <0>         0.1783
     36 H10        -3.6816    0.8853   -3.2648 H         1 <0>         0.1787
     37 H11        -0.2330    0.9061   -1.5261 H         1 <0>         0.1444
     38 H12         0.0058    0.0018   -0.0008 H         1 <0>         0.1211
     39 H13         1.9168   -1.4131   -3.4726 H         1 <0>         0.1184
     40 H14         0.9112    0.0608   -3.6025 H         1 <0>         0.1625
     41 H15        -1.2640   -1.9562   -0.9260 H         1 <0>         0.1217
     42 H16        -2.2707   -0.4835   -1.0562 H         1 <0>         0.1444
     43 H17        -0.3596   -1.8946   -4.5294 H         1 <0>         0.1176
     44 H18        -0.1203   -2.8031   -3.0074 H         1 <0>         0.1624
     45 H19         3.1916   -0.5578   -1.6415 H         1 <0>         0.1105
     46 H20         2.3879    0.0371   -0.1818 H         1 <0>         0.1015
     47 H21        -2.5802   -2.9353   -2.8349 H         1 <0>         0.1098
     48 H22        -2.6943   -2.0168   -4.3428 H         1 <0>         0.1013
     49 H23         3.0058    3.6661   -3.9784 H         1 <0>         0.4881
     50 H24        -5.9410    1.1353   -2.2267 H         1 <0>         0.4882
     51 H25         1.2452   -1.6500   -1.1961 H         1 <0>         0.4431
     52 H26        -1.6017   -0.2480   -3.3335 H         1 <0>         0.4430
@<TRIPOS>BOND
     1    1    3 ar
     2    1    5 ar
     3    2    4 ar
     4    2    6 ar
     5    3    7 ar
     6    4    8 ar
     7    5   11 ar
     8    6   12 ar
     9    7   15 ar
    10    8   16 ar
    11    9   13 2
    12    9   23 1
    13   10   14 2
    14   10   24 1
    15   11   13 1
    16   11   15 ar
    17   12   14 1
    18   12   16 ar
    19   13   21 1
    20   14   22 1
    21   15   23 1
    22   16   24 1
    23   17   19 1
    24   17   25 1
    25   18   20 1
    26   18   25 1
    27   19   26 1
    28   20   26 1
    29   21   25 1
    30   22   26 1
    31    1   27 1
    32    2   28 1
    33    3   29 1
    34    4   30 1
    35    5   31 1
    36    6   32 1
    37    7   33 1
    38    8   34 1
    39    9   35 1
    40   10   36 1
    41   17   37 1
    42   17   38 1
    43   18   39 1
    44   18   40 1
    45   19   41 1
    46   19   42 1
    47   20   43 1
    48   20   44 1
    49   21   45 1
    50   21   46 1
    51   22   47 1
    52   22   48 1
    53   23   49 1
    54   24   50 1
    55   25   51 1
    56   26   52 1
@<TRIPOS>MOLECULE
ZINC00092235_16
   52    56     0     0     0
SMALL
USER_CHARGES

mmff94s_NoEstat = 54.92
@<TRIPOS>ATOM
      1 C1          3.5112    3.6315    1.4502 C.ar      1 <0>        -0.0978
      2 C2         -1.1943   -6.0371   -4.8799 C.ar      1 <0>        -0.0984
      3 C3          3.5462    3.2873    2.8000 C.ar      1 <0>        -0.0943
      4 C4         -1.4363   -7.0820   -3.9903 C.ar      1 <0>        -0.0957
      5 C5          3.1795    2.6816    0.4771 C.ar      1 <0>        -0.1265
      6 C6         -1.5741   -4.7270   -4.5664 C.ar      1 <0>        -0.1261
      7 C7          3.2518    1.9871    3.2202 C.ar      1 <0>        -0.1009
      8 C8         -2.0635   -6.8526   -2.7624 C.ar      1 <0>        -0.1004
      9 C9          2.3429   -0.8184    1.1179 C.2       1 <0>         0.0849
     10 C10        -3.2327   -3.6718   -1.4848 C.2       1 <0>         0.0824
     11 C11         2.8790    1.3643    0.8769 C.ar      1 <0>        -0.0700
     12 C12        -2.2080   -4.4713   -3.3342 C.ar      1 <0>        -0.0695
     13 C13         2.5148    0.1795    0.2065 C.2       1 <0>        -0.3121
     14 C14        -2.7150   -3.3221   -2.6954 C.2       1 <0>        -0.3108
     15 C15         2.9220    1.0481    2.2365 C.ar      1 <0>         0.0626
     16 C16        -2.4376   -5.5379   -2.4624 C.ar      1 <0>         0.0622
     17 C17        -0.1424   -0.0915   -1.0817 C.3       1 <0>         0.0793
     18 C18         0.9917   -0.9303   -3.1418 C.3       1 <0>         0.0777
     19 C19        -1.3452   -0.9655   -1.3875 C.3       1 <0>         0.0735
     20 C20        -0.2112   -1.8040   -3.4486 C.3       1 <0>         0.0792
     21 C21         2.3415    0.0283   -1.2761 C.3       1 <0>         0.2470
     22 C22        -2.6944   -1.9286   -3.2510 C.3       1 <0>         0.2493
     23 N1          2.5921   -0.2834    2.3533 N.pl3     1 <0>        -0.5192
     24 N2         -3.0608   -5.0232   -1.3479 N.pl3     1 <0>        -0.5179
     25 N3          1.1000   -0.7329   -1.6495 N.4       1 <0>        -0.7137
     26 N4         -1.4541   -1.1645   -2.8795 N.4       1 <0>        -0.7135
     27 H1          3.7445    4.6486    1.1475 H         1 <0>         0.1593
     28 H2         -0.7057   -6.2400   -5.8289 H         1 <0>         0.1589
     29 H3          3.8062    4.0405    3.5392 H         1 <0>         0.1682
     30 H4         -1.1331   -8.0919   -4.2537 H         1 <0>         0.1676
     31 H5          3.1563    2.9654   -0.5712 H         1 <0>         0.1247
     32 H6         -1.3783   -3.9230   -5.2702 H         1 <0>         0.1259
     33 H7          3.2798    1.7205    4.2715 H         1 <0>         0.1640
     34 H8         -2.2516   -7.6671   -2.0709 H         1 <0>         0.1649
     35 H9          2.0679   -1.8591    1.0163 H         1 <0>         0.1783
     36 H10        -3.7083   -3.0975   -0.7018 H         1 <0>         0.1787
     37 H11        -0.2330    0.9061   -1.5261 H         1 <0>         0.1444
     38 H12         0.0058    0.0018   -0.0008 H         1 <0>         0.1211
     39 H13         1.9168   -1.4131   -3.4726 H         1 <0>         0.1184
     40 H14         0.9112    0.0608   -3.6025 H         1 <0>         0.1625
     41 H15        -1.2640   -1.9562   -0.9260 H         1 <0>         0.1217
     42 H16        -2.2707   -0.4835   -1.0562 H         1 <0>         0.1444
     43 H17        -0.3596   -1.8946   -4.5294 H         1 <0>         0.1176
     44 H18        -0.1203   -2.8031   -3.0074 H         1 <0>         0.1624
     45 H19         2.2719    1.0044   -1.7682 H         1 <0>         0.1105
     46 H20         3.1859   -0.5098   -1.7202 H         1 <0>         0.1015
     47 H21        -2.7422   -1.9378   -4.3452 H         1 <0>         0.1098
     48 H22        -3.5454   -1.3442   -2.8848 H         1 <0>         0.1013
     49 H23         2.5416   -0.7914    3.2255 H         1 <0>         0.4881
     50 H24        -3.3492   -5.5656   -0.5454 H         1 <0>         0.4882
     51 H25         1.2452   -1.6500   -1.1961 H         1 <0>         0.4431
     52 H26        -1.6017   -0.2480   -3.3335 H         1 <0>         0.4430
@<TRIPOS>BOND
     1    1    3 ar
     2    1    5 ar
     3    2    4 ar
     4    2    6 ar
     5    3    7 ar
     6    4    8 ar
     7    5   11 ar
     8    6   12 ar
     9    7   15 ar
    10    8   16 ar
    11    9   13 2
    12    9   23 1
    13   10   14 2
    14   10   24 1
    15   11   13 1
    16   11   15 ar
    17   12   14 1
    18   12   16 ar
    19   13   21 1
    20   14   22 1
    21   15   23 1
    22   16   24 1
    23   17   19 1
    24   17   25 1
    25   18   20 1
    26   18   25 1
    27   19   26 1
    28   20   26 1
    29   21   25 1
    30   22   26 1
    31    1   27 1
    32    2   28 1
    33    3   29 1
    34    4   30 1
    35    5   31 1
    36    6   32 1
    37    7   33 1
    38    8   34 1
    39    9   35 1
    40   10   36 1
    41   17   37 1
    42   17   38 1
    43   18   39 1
    44   18   40 1
    45   19   41 1
    46   19   42 1
    47   20   43 1
    48   20   44 1
    49   21   45 1
    50   21   46 1
    51   22   47 1
    52   22   48 1
    53   23   49 1
    54   24   50 1
    55   25   51 1
    56   26   52 1
@<TRIPOS>MOLECULE
ZINC00092235_17
   52    56     0     0     0
SMALL
USER_CHARGES

mmff94s_NoEstat = 54.94
@<TRIPOS>ATOM
      1 C1          6.1696    1.6625   -3.3876 C.ar      1 <0>        -0.0978
      2 C2         -4.2820   -3.7499    0.7422 C.ar      1 <0>        -0.0984
      3 C3          7.0967    0.6582   -3.6591 C.ar      1 <0>        -0.0943
      4 C4         -4.0758   -5.1259    0.8179 C.ar      1 <0>        -0.0957
      5 C5          4.9564    1.3657   -2.7561 C.ar      1 <0>        -0.1265
      6 C6         -3.8723   -3.0250   -0.3828 C.ar      1 <0>        -0.1261
      7 C7          6.8425   -0.6711   -3.3095 C.ar      1 <0>        -0.1009
      8 C8         -3.4554   -5.8202   -0.2247 C.ar      1 <0>        -0.1004
      9 C9          3.8782   -1.9542   -1.6715 C.2       1 <0>         0.0849
     10 C10        -2.2186   -4.4217   -3.3281 C.2       1 <0>         0.0824
     11 C11         4.6779    0.0326   -2.3943 C.ar      1 <0>        -0.0700
     12 C12        -3.2446   -3.7033   -1.4464 C.ar      1 <0>        -0.0695
     13 C13         3.6006   -0.6238   -1.7663 C.2       1 <0>        -0.3121
     14 C14        -2.7150   -3.3221   -2.6954 C.2       1 <0>        -0.3108
     15 C15         5.6255   -0.9530   -2.6788 C.ar      1 <0>         0.0626
     16 C16        -3.0511   -5.0825   -1.3430 C.ar      1 <0>         0.0622
     17 C17        -0.1424   -0.0915   -1.0817 C.3       1 <0>         0.0793
     18 C18         0.9917   -0.9303   -3.1418 C.3       1 <0>         0.0777
     19 C19        -1.3452   -0.9655   -1.3875 C.3       1 <0>         0.0735
     20 C20        -0.2112   -1.8040   -3.4486 C.3       1 <0>         0.0792
     21 C21         2.3415    0.0283   -1.2761 C.3       1 <0>         0.2470
     22 C22        -2.6944   -1.9286   -3.2510 C.3       1 <0>         0.2493
     23 N1          5.1135   -2.1491   -2.2288 N.pl3     1 <0>        -0.5192
     24 N2         -2.4263   -5.4917   -2.4995 N.pl3     1 <0>        -0.5179
     25 N3          1.1000   -0.7329   -1.6495 N.4       1 <0>        -0.7137
     26 N4         -1.4541   -1.1645   -2.8795 N.4       1 <0>        -0.7135
     27 H1          6.3893    2.6886   -3.6693 H         1 <0>         0.1593
     28 H2         -4.7660   -3.2318    1.5655 H         1 <0>         0.1589
     29 H3          8.0328    0.9106   -4.1503 H         1 <0>         0.1682
     30 H4         -4.4019   -5.6696    1.7007 H         1 <0>         0.1676
     31 H5          4.2439    2.1596   -2.5510 H         1 <0>         0.1247
     32 H6         -4.0403   -1.9527   -0.4270 H         1 <0>         0.1259
     33 H7          7.5650   -1.4520   -3.5219 H         1 <0>         0.1640
     34 H8         -3.2952   -6.8915   -0.1642 H         1 <0>         0.1649
     35 H9          3.3230   -2.7875   -1.2634 H         1 <0>         0.1783
     36 H10        -1.7365   -4.5559   -4.2866 H         1 <0>         0.1787
     37 H11        -0.2330    0.9061   -1.5261 H         1 <0>         0.1444
     38 H12         0.0058    0.0018   -0.0008 H         1 <0>         0.1211
     39 H13         1.9168   -1.4131   -3.4726 H         1 <0>         0.1184
     40 H14         0.9112    0.0608   -3.6025 H         1 <0>         0.1625
     41 H15        -1.2640   -1.9562   -0.9260 H         1 <0>         0.1217
     42 H16        -2.2707   -0.4835   -1.0562 H         1 <0>         0.1444
     43 H17        -0.3596   -1.8946   -4.5294 H         1 <0>         0.1176
     44 H18        -0.1203   -2.8031   -3.0074 H         1 <0>         0.1624
     45 H19         2.3402    0.1161   -0.1844 H         1 <0>         0.1105
     46 H20         2.2300    1.0355   -1.6920 H         1 <0>         0.1015
     47 H21        -2.7422   -1.9378   -4.3452 H         1 <0>         0.1098
     48 H22        -3.5454   -1.3442   -2.8848 H         1 <0>         0.1013
     49 H23         5.5826   -3.0414   -2.3003 H         1 <0>         0.4881
     50 H24        -2.1599   -6.4445   -2.7059 H         1 <0>         0.4882
     51 H25         1.2452   -1.6500   -1.1961 H         1 <0>         0.4431
     52 H26        -1.6017   -0.2480   -3.3335 H         1 <0>         0.4430
@<TRIPOS>BOND
     1    1    3 ar
     2    1    5 ar
     3    2    4 ar
     4    2    6 ar
     5    3    7 ar
     6    4    8 ar
     7    5   11 ar
     8    6   12 ar
     9    7   15 ar
    10    8   16 ar
    11    9   13 2
    12    9   23 1
    13   10   14 2
    14   10   24 1
    15   11   13 1
    16   11   15 ar
    17   12   14 1
    18   12   16 ar
    19   13   21 1
    20   14   22 1
    21   15   23 1
    22   16   24 1
    23   17   19 1
    24   17   25 1
    25   18   20 1
    26   18   25 1
    27   19   26 1
    28   20   26 1
    29   21   25 1
    30   22   26 1
    31    1   27 1
    32    2   28 1
    33    3   29 1
    34    4   30 1
    35    5   31 1
    36    6   32 1
    37    7   33 1
    38    8   34 1
    39    9   35 1
    40   10   36 1
    41   17   37 1
    42   17   38 1
    43   18   39 1
    44   18   40 1
    45   19   41 1
    46   19   42 1
    47   20   43 1
    48   20   44 1
    49   21   45 1
    50   21   46 1
    51   22   47 1
    52   22   48 1
    53   23   49 1
    54   24   50 1
    55   25   51 1
    56   26   52 1
@<TRIPOS>MOLECULE
ZINC00092235_18
   52    56     0     0     0
SMALL
USER_CHARGES

mmff94s_NoEstat = 55.25
@<TRIPOS>ATOM
      1 C1         -2.0675    0.3064   -5.7475 C.ar      1 <0>        -0.0978
      2 C2         -5.7002    2.3231    5.0739 C.ar      1 <0>        -0.0984
      3 C3         -3.2380    0.7592   -6.3529 C.ar      1 <0>        -0.0943
      4 C4         -6.8331    1.6798    5.5686 C.ar      1 <0>        -0.0957
      5 C5         -1.8105    0.5713   -4.3974 C.ar      1 <0>        -0.1265
      6 C6         -4.6803    1.5973    4.4479 C.ar      1 <0>        -0.1261
      7 C7         -4.1869    1.4892   -5.6313 C.ar      1 <0>        -0.1009
      8 C8         -6.9832    0.2948    5.4541 C.ar      1 <0>        -0.1004
      9 C9         -4.0005    2.4337   -2.1400 C.2       1 <0>         0.0849
     10 C10        -4.6514   -2.0212    3.9324 C.2       1 <0>         0.0824
     11 C11        -2.7526    1.3054   -3.6497 C.ar      1 <0>        -0.0700
     12 C12        -4.8094    0.2000    4.3210 C.ar      1 <0>        -0.0695
     13 C13        -2.8353    1.7498   -2.3149 C.2       1 <0>        -0.3121
     14 C14        -4.0166   -0.8268    3.7704 C.2       1 <0>        -0.3108
     15 C15        -3.9167    1.7465   -4.2826 C.ar      1 <0>         0.0626
     16 C16        -5.9555   -0.4178    4.8260 C.ar      1 <0>         0.0622
     17 C17        -3.4142    0.2187    0.1554 C.3       1 <0>         0.0793
     18 C18        -0.9527   -0.0013    0.5399 C.3       1 <0>         0.0777
     19 C19        -3.6381   -1.1269    0.8216 C.3       1 <0>         0.0735
     20 C20        -1.1775   -1.3469    1.2061 C.3       1 <0>         0.0792
     21 C21        -1.8086    1.5140   -1.2466 C.3       1 <0>         0.2470
     22 C22        -2.6823   -0.6456    3.1086 C.3       1 <0>         0.2493
     23 N1         -4.6556    2.4284   -3.3422 N.pl3     1 <0>        -0.5192
     24 N2         -5.8325   -1.7660    4.5760 N.pl3     1 <0>        -0.5179
     25 N3         -2.0428    0.2454   -0.4742 N.4       1 <0>        -0.7137
     26 N4         -2.5509   -1.4196    1.8252 N.4       1 <0>        -0.7135
     27 H1         -1.3443   -0.2588   -6.3290 H         1 <0>         0.1593
     28 H2         -5.6056    3.4008    5.1751 H         1 <0>         0.1589
     29 H3         -3.4178    0.5423   -7.4026 H         1 <0>         0.1682
     30 H4         -7.6133    2.2625    6.0511 H         1 <0>         0.1676
     31 H5         -0.8936    0.2113   -3.9397 H         1 <0>         0.1247
     32 H6         -3.8034    2.1133    4.0673 H         1 <0>         0.1259
     33 H7         -5.0976    1.8414   -6.1041 H         1 <0>         0.1640
     34 H8         -7.8655   -0.2047    5.8400 H         1 <0>         0.1649
     35 H9         -4.4347    2.9266   -1.2811 H         1 <0>         0.1783
     36 H10        -4.3849   -3.0319    3.6557 H         1 <0>         0.1787
     37 H11        -4.1417    0.3801   -0.6468 H         1 <0>         0.1444
     38 H12        -3.4683    1.0500    0.8671 H         1 <0>         0.1211
     39 H13        -0.9738    0.8269    1.2569 H         1 <0>         0.1184
     40 H14        -0.0003    0.0096   -0.0000 H         1 <0>         0.1625
     41 H15        -4.5941   -1.1614    1.3542 H         1 <0>         0.1217
     42 H16        -3.6174   -1.9434    0.0908 H         1 <0>         0.1444
     43 H17        -1.1171   -2.1669    0.4815 H         1 <0>         0.1176
     44 H18        -0.4488   -1.5318    2.0021 H         1 <0>         0.1624
     45 H19        -0.8026    1.4412   -1.6735 H         1 <0>         0.1105
     46 H20        -1.8030    2.3304   -0.5164 H         1 <0>         0.1015
     47 H21        -2.5025    0.4062    2.8614 H         1 <0>         0.1098
     48 H22        -1.8685   -0.9787    3.7616 H         1 <0>         0.1013
     49 H23        -5.5519    2.8620   -3.5156 H         1 <0>         0.4881
     50 H24        -6.5161   -2.4653    4.8313 H         1 <0>         0.4882
     51 H25        -1.9940   -0.4842   -1.2050 H         1 <0>         0.4431
     52 H26        -2.6851   -2.4029    2.1217 H         1 <0>         0.4430
@<TRIPOS>BOND
     1    1    3 ar
     2    1    5 ar
     3    2    4 ar
     4    2    6 ar
     5    3    7 ar
     6    4    8 ar
     7    5   11 ar
     8    6   12 ar
     9    7   15 ar
    10    8   16 ar
    11    9   13 2
    12    9   23 1
    13   10   14 2
    14   10   24 1
    15   11   13 1
    16   11   15 ar
    17   12   14 1
    18   12   16 ar
    19   13   21 1
    20   14   22 1
    21   15   23 1
    22   16   24 1
    23   17   19 1
    24   17   25 1
    25   18   20 1
    26   18   25 1
    27   19   26 1
    28   20   26 1
    29   21   25 1
    30   22   26 1
    31    1   27 1
    32    2   28 1
    33    3   29 1
    34    4   30 1
    35    5   31 1
    36    6   32 1
    37    7   33 1
    38    8   34 1
    39    9   35 1
    40   10   36 1
    41   17   37 1
    42   17   38 1
    43   18   39 1
    44   18   40 1
    45   19   41 1
    46   19   42 1
    47   20   43 1
    48   20   44 1
    49   21   45 1
    50   21   46 1
    51   22   47 1
    52   22   48 1
    53   23   49 1
    54   24   50 1
    55   25   51 1
    56   26   52 1
@<TRIPOS>MOLECULE
ZINC00092235_19
   52    56     0     0     0
SMALL
USER_CHARGES

mmff94s_NoEstat = 55.26
@<TRIPOS>ATOM
      1 C1         -0.4126    0.1540   -5.4874 C.ar      1 <0>        -0.0978
      2 C2          0.0684    1.8081    5.9715 C.ar      1 <0>        -0.0984
      3 C3          0.9463    0.3802   -5.6977 C.ar      1 <0>        -0.0943
      4 C4          0.8694    0.9921    6.7679 C.ar      1 <0>        -0.0957
      5 C5         -1.0163    0.4975   -4.2723 C.ar      1 <0>        -0.1265
      6 C6         -0.8248    1.2532    5.0479 C.ar      1 <0>        -0.1261
      7 C7          1.7435    0.9551   -4.7039 C.ar      1 <0>        -0.1009
      8 C8          0.8040   -0.4006    6.6678 C.ar      1 <0>        -0.1004
      9 C9          0.6754    2.0153   -1.4097 C.2       1 <0>         0.0849
     10 C10        -1.3243   -2.3184    4.4523 C.2       1 <0>         0.0824
     11 C11        -0.2327    1.0783   -3.2555 C.ar      1 <0>        -0.0700
     12 C12        -0.9082   -0.1484    4.9292 C.ar      1 <0>        -0.0695
     13 C13        -0.4823    1.5392   -1.9474 C.2       1 <0>        -0.3121
     14 C14        -1.6635   -1.0370    4.1380 C.2       1 <0>        -0.3108
     15 C15         1.1264    1.2933   -3.4943 C.ar      1 <0>         0.0626
     16 C16        -0.0935   -0.9413    5.7402 C.ar      1 <0>         0.0622
     17 C17        -3.4142    0.2187    0.1554 C.3       1 <0>         0.0793
     18 C18        -0.9527   -0.0013    0.5399 C.3       1 <0>         0.0777
     19 C19        -3.6381   -1.1269    0.8216 C.3       1 <0>         0.0735
     20 C20        -1.1775   -1.3469    1.2061 C.3       1 <0>         0.0792
     21 C21        -1.8086    1.5140   -1.2466 C.3       1 <0>         0.2470
     22 C22        -2.6823   -0.6456    3.1086 C.3       1 <0>         0.2493
     23 N1          1.6523    1.8632   -2.3568 N.pl3     1 <0>        -0.5192
     24 N2         -0.3674   -2.2542    5.4294 N.pl3     1 <0>        -0.5179
     25 N3         -2.0428    0.2454   -0.4742 N.4       1 <0>        -0.7137
     26 N4         -2.5509   -1.4196    1.8252 N.4       1 <0>        -0.7135
     27 H1         -1.0120   -0.2948   -6.2748 H         1 <0>         0.1593
     28 H2          0.1372    2.8883    6.0667 H         1 <0>         0.1589
     29 H3          1.3949    0.1060   -6.6489 H         1 <0>         0.1682
     30 H4          1.5562    1.4439    7.4788 H         1 <0>         0.1676
     31 H5         -2.0768    0.3151   -4.1237 H         1 <0>         0.1247
     32 H6         -1.4427    1.9026    4.4343 H         1 <0>         0.1259
     33 H7          2.8013    1.1303   -4.8688 H         1 <0>         0.1640
     34 H8          1.4284   -1.0346    7.2883 H         1 <0>         0.1649
     35 H9          0.9078    2.4488   -0.4468 H         1 <0>         0.1783
     36 H10        -1.6655   -3.2749    4.0809 H         1 <0>         0.1787
     37 H11        -4.1417    0.3801   -0.6468 H         1 <0>         0.1444
     38 H12        -3.4683    1.0500    0.8671 H         1 <0>         0.1211
     39 H13        -0.9738    0.8269    1.2569 H         1 <0>         0.1184
     40 H14        -0.0003    0.0096   -0.0000 H         1 <0>         0.1625
     41 H15        -4.5941   -1.1614    1.3542 H         1 <0>         0.1217
     42 H16        -3.6174   -1.9434    0.0908 H         1 <0>         0.1444
     43 H17        -1.1171   -2.1669    0.4815 H         1 <0>         0.1176
     44 H18        -0.4488   -1.5318    2.0021 H         1 <0>         0.1624
     45 H19        -1.8939    2.3385   -0.5306 H         1 <0>         0.1105
     46 H20        -2.6347    1.6049   -1.9601 H         1 <0>         0.1015
     47 H21        -3.7006   -0.8146    3.4750 H         1 <0>         0.1098
     48 H22        -2.5934    0.4144    2.8472 H         1 <0>         0.1013
     49 H23         2.6199    2.1301   -2.2390 H         1 <0>         0.4881
     50 H24         0.0748   -3.0541    5.8607 H         1 <0>         0.4882
     51 H25        -1.9940   -0.4842   -1.2050 H         1 <0>         0.4431
     52 H26        -2.6851   -2.4029    2.1217 H         1 <0>         0.4430
@<TRIPOS>BOND
     1    1    3 ar
     2    1    5 ar
     3    2    4 ar
     4    2    6 ar
     5    3    7 ar
     6    4    8 ar
     7    5   11 ar
     8    6   12 ar
     9    7   15 ar
    10    8   16 ar
    11    9   13 2
    12    9   23 1
    13   10   14 2
    14   10   24 1
    15   11   13 1
    16   11   15 ar
    17   12   14 1
    18   12   16 ar
    19   13   21 1
    20   14   22 1
    21   15   23 1
    22   16   24 1
    23   17   19 1
    24   17   25 1
    25   18   20 1
    26   18   25 1
    27   19   26 1
    28   20   26 1
    29   21   25 1
    30   22   26 1
    31    1   27 1
    32    2   28 1
    33    3   29 1
    34    4   30 1
    35    5   31 1
    36    6   32 1
    37    7   33 1
    38    8   34 1
    39    9   35 1
    40   10   36 1
    41   17   37 1
    42   17   38 1
    43   18   39 1
    44   18   40 1
    45   19   41 1
    46   19   42 1
    47   20   43 1
    48   20   44 1
    49   21   45 1
    50   21   46 1
    51   22   47 1
    52   22   48 1
    53   23   49 1
    54   24   50 1
    55   25   51 1
    56   26   52 1
@<TRIPOS>MOLECULE
ZINC00092235_20
   52    56     0     0     0
SMALL
USER_CHARGES

mmff94s_NoEstat = 55.28
@<TRIPOS>ATOM
      1 C1         -4.2465    5.2719   -2.5574 C.ar      1 <0>        -0.0978
      2 C2         -5.7002    2.3231    5.0739 C.ar      1 <0>        -0.0984
      3 C3         -5.1021    5.0050   -3.6244 C.ar      1 <0>        -0.0943
      4 C4         -6.8331    1.6798    5.5686 C.ar      1 <0>        -0.0957
      5 C5         -3.4318    4.2668   -2.0237 C.ar      1 <0>        -0.1265
      6 C6         -4.6803    1.5973    4.4479 C.ar      1 <0>        -0.1261
      7 C7         -5.1711    3.7290   -4.1911 C.ar      1 <0>        -0.1009
      8 C8         -6.9832    0.2948    5.4541 C.ar      1 <0>        -0.1004
      9 C9         -3.2867    0.8042   -3.1856 C.2       1 <0>         0.0849
     10 C10        -4.6514   -2.0212    3.9324 C.2       1 <0>         0.0824
     11 C11        -3.4843    2.9726   -2.5785 C.ar      1 <0>        -0.0700
     12 C12        -4.8094    0.2000    4.3210 C.ar      1 <0>        -0.0695
     13 C13        -2.8353    1.7498   -2.3149 C.2       1 <0>        -0.3121
     14 C14        -4.0166   -0.8268    3.7704 C.2       1 <0>        -0.3108
     15 C15        -4.3510    2.7341   -3.6472 C.ar      1 <0>         0.0626
     16 C16        -5.9555   -0.4178    4.8260 C.ar      1 <0>         0.0622
     17 C17        -3.4142    0.2187    0.1554 C.3       1 <0>         0.0793
     18 C18        -0.9527   -0.0013    0.5399 C.3       1 <0>         0.0777
     19 C19        -3.6381   -1.1269    0.8216 C.3       1 <0>         0.0735
     20 C20        -1.1775   -1.3469    1.2061 C.3       1 <0>         0.0792
     21 C21        -1.8086    1.5140   -1.2466 C.3       1 <0>         0.2470
     22 C22        -2.6823   -0.6456    3.1086 C.3       1 <0>         0.2493
     23 N1         -4.2100    1.4096   -3.9953 N.pl3     1 <0>        -0.5192
     24 N2         -5.8325   -1.7660    4.5760 N.pl3     1 <0>        -0.5179
     25 N3         -2.0428    0.2454   -0.4742 N.4       1 <0>        -0.7137
     26 N4         -2.5509   -1.4196    1.8252 N.4       1 <0>        -0.7135
     27 H1         -4.2105    6.2715   -2.1331 H         1 <0>         0.1593
     28 H2         -5.6056    3.4008    5.1751 H         1 <0>         0.1589
     29 H3         -5.7261    5.8002   -4.0238 H         1 <0>         0.1682
     30 H4         -7.6133    2.2625    6.0511 H         1 <0>         0.1676
     31 H5         -2.7699    4.4906   -1.1919 H         1 <0>         0.1247
     32 H6         -3.8034    2.1133    4.0673 H         1 <0>         0.1259
     33 H7         -5.8380    3.5226   -5.0215 H         1 <0>         0.1640
     34 H8         -7.8655   -0.2047    5.8400 H         1 <0>         0.1649
     35 H9         -3.0465   -0.2421   -3.3146 H         1 <0>         0.1783
     36 H10        -4.3849   -3.0319    3.6557 H         1 <0>         0.1787
     37 H11        -4.1417    0.3801   -0.6468 H         1 <0>         0.1444
     38 H12        -3.4683    1.0500    0.8671 H         1 <0>         0.1211
     39 H13        -0.9738    0.8269    1.2569 H         1 <0>         0.1184
     40 H14        -0.0003    0.0096   -0.0000 H         1 <0>         0.1625
     41 H15        -4.5941   -1.1614    1.3542 H         1 <0>         0.1217
     42 H16        -3.6174   -1.9434    0.0908 H         1 <0>         0.1444
     43 H17        -1.1171   -2.1669    0.4815 H         1 <0>         0.1176
     44 H18        -0.4488   -1.5318    2.0021 H         1 <0>         0.1624
     45 H19        -0.8026    1.4412   -1.6735 H         1 <0>         0.1105
     46 H20        -1.8030    2.3304   -0.5164 H         1 <0>         0.1015
     47 H21        -2.5025    0.4062    2.8614 H         1 <0>         0.1098
     48 H22        -1.8685   -0.9787    3.7616 H         1 <0>         0.1013
     49 H23        -4.7156    0.9515   -4.7409 H         1 <0>         0.4881
     50 H24        -6.5161   -2.4653    4.8313 H         1 <0>         0.4882
     51 H25        -1.9940   -0.4842   -1.2050 H         1 <0>         0.4431
     52 H26        -2.6851   -2.4029    2.1217 H         1 <0>         0.4430
@<TRIPOS>BOND
     1    1    3 ar
     2    1    5 ar
     3    2    4 ar
     4    2    6 ar
     5    3    7 ar
     6    4    8 ar
     7    5   11 ar
     8    6   12 ar
     9    7   15 ar
    10    8   16 ar
    11    9   13 2
    12    9   23 1
    13   10   14 2
    14   10   24 1
    15   11   13 1
    16   11   15 ar
    17   12   14 1
    18   12   16 ar
    19   13   21 1
    20   14   22 1
    21   15   23 1
    22   16   24 1
    23   17   19 1
    24   17   25 1
    25   18   20 1
    26   18   25 1
    27   19   26 1
    28   20   26 1
    29   21   25 1
    30   22   26 1
    31    1   27 1
    32    2   28 1
    33    3   29 1
    34    4   30 1
    35    5   31 1
    36    6   32 1
    37    7   33 1
    38    8   34 1
    39    9   35 1
    40   10   36 1
    41   17   37 1
    42   17   38 1
    43   18   39 1
    44   18   40 1
    45   19   41 1
    46   19   42 1
    47   20   43 1
    48   20   44 1
    49   21   45 1
    50   21   46 1
    51   22   47 1
    52   22   48 1
    53   23   49 1
    54   24   50 1
    55   25   51 1
    56   26   52 1
@<TRIPOS>MOLECULE
ZINC00092235_21
   52    56     0     0     0
SMALL
USER_CHARGES

mmff94s_NoEstat = 55.31
@<TRIPOS>ATOM
      1 C1         -0.4126    0.1540   -5.4874 C.ar      1 <0>        -0.0978
      2 C2         -5.7002    2.3231    5.0739 C.ar      1 <0>        -0.0984
      3 C3          0.9463    0.3802   -5.6977 C.ar      1 <0>        -0.0943
      4 C4         -6.8331    1.6798    5.5686 C.ar      1 <0>        -0.0957
      5 C5         -1.0163    0.4975   -4.2723 C.ar      1 <0>        -0.1265
      6 C6         -4.6803    1.5973    4.4479 C.ar      1 <0>        -0.1261
      7 C7          1.7435    0.9551   -4.7039 C.ar      1 <0>        -0.1009
      8 C8         -6.9832    0.2948    5.4541 C.ar      1 <0>        -0.1004
      9 C9          0.6754    2.0153   -1.4097 C.2       1 <0>         0.0849
     10 C10        -4.6514   -2.0212    3.9324 C.2       1 <0>         0.0824
     11 C11        -0.2327    1.0783   -3.2555 C.ar      1 <0>        -0.0700
     12 C12        -4.8094    0.2000    4.3210 C.ar      1 <0>        -0.0695
     13 C13        -0.4823    1.5392   -1.9474 C.2       1 <0>        -0.3121
     14 C14        -4.0166   -0.8268    3.7704 C.2       1 <0>        -0.3108
     15 C15         1.1264    1.2933   -3.4943 C.ar      1 <0>         0.0626
     16 C16        -5.9555   -0.4178    4.8260 C.ar      1 <0>         0.0622
     17 C17        -3.4142    0.2187    0.1554 C.3       1 <0>         0.0793
     18 C18        -0.9527   -0.0013    0.5399 C.3       1 <0>         0.0777
     19 C19        -3.6381   -1.1269    0.8216 C.3       1 <0>         0.0735
     20 C20        -1.1775   -1.3469    1.2061 C.3       1 <0>         0.0792
     21 C21        -1.8086    1.5140   -1.2466 C.3       1 <0>         0.2470
     22 C22        -2.6823   -0.6456    3.1086 C.3       1 <0>         0.2493
     23 N1          1.6523    1.8632   -2.3568 N.pl3     1 <0>        -0.5192
     24 N2         -5.8325   -1.7660    4.5760 N.pl3     1 <0>        -0.5179
     25 N3         -2.0428    0.2454   -0.4742 N.4       1 <0>        -0.7137
     26 N4         -2.5509   -1.4196    1.8252 N.4       1 <0>        -0.7135
     27 H1         -1.0120   -0.2948   -6.2748 H         1 <0>         0.1593
     28 H2         -5.6056    3.4008    5.1751 H         1 <0>         0.1589
     29 H3          1.3949    0.1060   -6.6489 H         1 <0>         0.1682
     30 H4         -7.6133    2.2625    6.0511 H         1 <0>         0.1676
     31 H5         -2.0768    0.3151   -4.1237 H         1 <0>         0.1247
     32 H6         -3.8034    2.1133    4.0673 H         1 <0>         0.1259
     33 H7          2.8013    1.1303   -4.8688 H         1 <0>         0.1640
     34 H8         -7.8655   -0.2047    5.8400 H         1 <0>         0.1649
     35 H9          0.9078    2.4488   -0.4468 H         1 <0>         0.1783
     36 H10        -4.3849   -3.0319    3.6557 H         1 <0>         0.1787
     37 H11        -4.1417    0.3801   -0.6468 H         1 <0>         0.1444
     38 H12        -3.4683    1.0500    0.8671 H         1 <0>         0.1211
     39 H13        -0.9738    0.8269    1.2569 H         1 <0>         0.1184
     40 H14        -0.0003    0.0096   -0.0000 H         1 <0>         0.1625
     41 H15        -4.5941   -1.1614    1.3542 H         1 <0>         0.1217
     42 H16        -3.6174   -1.9434    0.0908 H         1 <0>         0.1444
     43 H17        -1.1171   -2.1669    0.4815 H         1 <0>         0.1176
     44 H18        -0.4488   -1.5318    2.0021 H         1 <0>         0.1624
     45 H19        -1.8939    2.3385   -0.5306 H         1 <0>         0.1105
     46 H20        -2.6347    1.6049   -1.9601 H         1 <0>         0.1015
     47 H21        -2.5025    0.4062    2.8614 H         1 <0>         0.1098
     48 H22        -1.8685   -0.9787    3.7616 H         1 <0>         0.1013
     49 H23         2.6199    2.1301   -2.2390 H         1 <0>         0.4881
     50 H24        -6.5161   -2.4653    4.8313 H         1 <0>         0.4882
     51 H25        -1.9940   -0.4842   -1.2050 H         1 <0>         0.4431
     52 H26        -2.6851   -2.4029    2.1217 H         1 <0>         0.4430
@<TRIPOS>BOND
     1    1    3 ar
     2    1    5 ar
     3    2    4 ar
     4    2    6 ar
     5    3    7 ar
     6    4    8 ar
     7    5   11 ar
     8    6   12 ar
     9    7   15 ar
    10    8   16 ar
    11    9   13 2
    12    9   23 1
    13   10   14 2
    14   10   24 1
    15   11   13 1
    16   11   15 ar
    17   12   14 1
    18   12   16 ar
    19   13   21 1
    20   14   22 1
    21   15   23 1
    22   16   24 1
    23   17   19 1
    24   17   25 1
    25   18   20 1
    26   18   25 1
    27   19   26 1
    28   20   26 1
    29   21   25 1
    30   22   26 1
    31    1   27 1
    32    2   28 1
    33    3   29 1
    34    4   30 1
    35    5   31 1
    36    6   32 1
    37    7   33 1
    38    8   34 1
    39    9   35 1
    40   10   36 1
    41   17   37 1
    42   17   38 1
    43   18   39 1
    44   18   40 1
    45   19   41 1
    46   19   42 1
    47   20   43 1
    48   20   44 1
    49   21   45 1
    50   21   46 1
    51   22   47 1
    52   22   48 1
    53   23   49 1
    54   24   50 1
    55   25   51 1
    56   26   52 1
@<TRIPOS>MOLECULE
ZINC00092235_22
   52    56     0     0     0
SMALL
USER_CHARGES

mmff94s_NoEstat = 55.31
@<TRIPOS>ATOM
      1 C1         -2.0675    0.3064   -5.7475 C.ar      1 <0>        -0.0978
      2 C2          0.0684    1.8081    5.9715 C.ar      1 <0>        -0.0984
      3 C3         -3.2380    0.7592   -6.3529 C.ar      1 <0>        -0.0943
      4 C4          0.8694    0.9921    6.7679 C.ar      1 <0>        -0.0957
      5 C5         -1.8105    0.5713   -4.3974 C.ar      1 <0>        -0.1265
      6 C6         -0.8248    1.2532    5.0479 C.ar      1 <0>        -0.1261
      7 C7         -4.1869    1.4892   -5.6313 C.ar      1 <0>        -0.1009
      8 C8          0.8040   -0.4006    6.6678 C.ar      1 <0>        -0.1004
      9 C9         -4.0005    2.4337   -2.1400 C.2       1 <0>         0.0849
     10 C10        -1.3243   -2.3184    4.4523 C.2       1 <0>         0.0824
     11 C11        -2.7526    1.3054   -3.6497 C.ar      1 <0>        -0.0700
     12 C12        -0.9082   -0.1484    4.9292 C.ar      1 <0>        -0.0695
     13 C13        -2.8353    1.7498   -2.3149 C.2       1 <0>        -0.3121
     14 C14        -1.6635   -1.0370    4.1380 C.2       1 <0>        -0.3108
     15 C15        -3.9167    1.7465   -4.2826 C.ar      1 <0>         0.0626
     16 C16        -0.0935   -0.9413    5.7402 C.ar      1 <0>         0.0622
     17 C17        -3.4142    0.2187    0.1554 C.3       1 <0>         0.0793
     18 C18        -0.9527   -0.0013    0.5399 C.3       1 <0>         0.0777
     19 C19        -3.6381   -1.1269    0.8216 C.3       1 <0>         0.0735
     20 C20        -1.1775   -1.3469    1.2061 C.3       1 <0>         0.0792
     21 C21        -1.8086    1.5140   -1.2466 C.3       1 <0>         0.2470
     22 C22        -2.6823   -0.6456    3.1086 C.3       1 <0>         0.2493
     23 N1         -4.6556    2.4284   -3.3422 N.pl3     1 <0>        -0.5192
     24 N2         -0.3674   -2.2542    5.4294 N.pl3     1 <0>        -0.5179
     25 N3         -2.0428    0.2454   -0.4742 N.4       1 <0>        -0.7137
     26 N4         -2.5509   -1.4196    1.8252 N.4       1 <0>        -0.7135
     27 H1         -1.3443   -0.2588   -6.3290 H         1 <0>         0.1593
     28 H2          0.1372    2.8883    6.0667 H         1 <0>         0.1589
     29 H3         -3.4178    0.5423   -7.4026 H         1 <0>         0.1682
     30 H4          1.5562    1.4439    7.4788 H         1 <0>         0.1676
     31 H5         -0.8936    0.2113   -3.9397 H         1 <0>         0.1247
     32 H6         -1.4427    1.9026    4.4343 H         1 <0>         0.1259
     33 H7         -5.0976    1.8414   -6.1041 H         1 <0>         0.1640
     34 H8          1.4284   -1.0346    7.2883 H         1 <0>         0.1649
     35 H9         -4.4347    2.9266   -1.2811 H         1 <0>         0.1783
     36 H10        -1.6655   -3.2749    4.0809 H         1 <0>         0.1787
     37 H11        -4.1417    0.3801   -0.6468 H         1 <0>         0.1444
     38 H12        -3.4683    1.0500    0.8671 H         1 <0>         0.1211
     39 H13        -0.9738    0.8269    1.2569 H         1 <0>         0.1184
     40 H14        -0.0003    0.0096   -0.0000 H         1 <0>         0.1625
     41 H15        -4.5941   -1.1614    1.3542 H         1 <0>         0.1217
     42 H16        -3.6174   -1.9434    0.0908 H         1 <0>         0.1444
     43 H17        -1.1171   -2.1669    0.4815 H         1 <0>         0.1176
     44 H18        -0.4488   -1.5318    2.0021 H         1 <0>         0.1624
     45 H19        -0.8026    1.4412   -1.6735 H         1 <0>         0.1105
     46 H20        -1.8030    2.3304   -0.5164 H         1 <0>         0.1015
     47 H21        -3.7006   -0.8146    3.4750 H         1 <0>         0.1098
     48 H22        -2.5934    0.4144    2.8472 H         1 <0>         0.1013
     49 H23        -5.5519    2.8620   -3.5156 H         1 <0>         0.4881
     50 H24         0.0748   -3.0541    5.8607 H         1 <0>         0.4882
     51 H25        -1.9940   -0.4842   -1.2050 H         1 <0>         0.4431
     52 H26        -2.6851   -2.4029    2.1217 H         1 <0>         0.4430
@<TRIPOS>BOND
     1    1    3 ar
     2    1    5 ar
     3    2    4 ar
     4    2    6 ar
     5    3    7 ar
     6    4    8 ar
     7    5   11 ar
     8    6   12 ar
     9    7   15 ar
    10    8   16 ar
    11    9   13 2
    12    9   23 1
    13   10   14 2
    14   10   24 1
    15   11   13 1
    16   11   15 ar
    17   12   14 1
    18   12   16 ar
    19   13   21 1
    20   14   22 1
    21   15   23 1
    22   16   24 1
    23   17   19 1
    24   17   25 1
    25   18   20 1
    26   18   25 1
    27   19   26 1
    28   20   26 1
    29   21   25 1
    30   22   26 1
    31    1   27 1
    32    2   28 1
    33    3   29 1
    34    4   30 1
    35    5   31 1
    36    6   32 1
    37    7   33 1
    38    8   34 1
    39    9   35 1
    40   10   36 1
    41   17   37 1
    42   17   38 1
    43   18   39 1
    44   18   40 1
    45   19   41 1
    46   19   42 1
    47   20   43 1
    48   20   44 1
    49   21   45 1
    50   21   46 1
    51   22   47 1
    52   22   48 1
    53   23   49 1
    54   24   50 1
    55   25   51 1
    56   26   52 1
@<TRIPOS>MOLECULE
ZINC00092235_23
   52    56     0     0     0
SMALL
USER_CHARGES

mmff94s_NoEstat = 55.34
@<TRIPOS>ATOM
      1 C1          1.5222    4.7572   -1.6600 C.ar      1 <0>        -0.0978
      2 C2         -5.7002    2.3231    5.0739 C.ar      1 <0>        -0.0984
      3 C3          2.6004    4.3173   -2.4253 C.ar      1 <0>        -0.0943
      4 C4         -6.8331    1.6798    5.5686 C.ar      1 <0>        -0.0957
      5 C5          0.4236    3.9227   -1.4238 C.ar      1 <0>        -0.1265
      6 C6         -4.6803    1.5973    4.4479 C.ar      1 <0>        -0.1261
      7 C7          2.6160    3.0333   -2.9777 C.ar      1 <0>        -0.1009
      8 C8         -6.9832    0.2948    5.4541 C.ar      1 <0>        -0.1004
      9 C9          0.0403    0.5065   -2.6659 C.2       1 <0>         0.0849
     10 C10        -4.6514   -2.0212    3.9324 C.2       1 <0>         0.0824
     11 C11         0.4169    2.6241   -1.9705 C.ar      1 <0>        -0.0700
     12 C12        -4.8094    0.2000    4.3210 C.ar      1 <0>        -0.0695
     13 C13        -0.4823    1.5392   -1.9474 C.2       1 <0>        -0.3121
     14 C14        -4.0166   -0.8268    3.7704 C.2       1 <0>        -0.3108
     15 C15         1.5110    2.2102   -2.7332 C.ar      1 <0>         0.0626
     16 C16        -5.9555   -0.4178    4.8260 C.ar      1 <0>         0.0622
     17 C17        -3.4142    0.2187    0.1554 C.3       1 <0>         0.0793
     18 C18        -0.9527   -0.0013    0.5399 C.3       1 <0>         0.0777
     19 C19        -3.6381   -1.1269    0.8216 C.3       1 <0>         0.0735
     20 C20        -1.1775   -1.3469    1.2061 C.3       1 <0>         0.0792
     21 C21        -1.8086    1.5140   -1.2466 C.3       1 <0>         0.2470
     22 C22        -2.6823   -0.6456    3.1086 C.3       1 <0>         0.2493
     23 N1          1.2552    0.9208   -3.1423 N.pl3     1 <0>        -0.5192
     24 N2         -5.8325   -1.7660    4.5760 N.pl3     1 <0>        -0.5179
     25 N3         -2.0428    0.2454   -0.4742 N.4       1 <0>        -0.7137
     26 N4         -2.5509   -1.4196    1.8252 N.4       1 <0>        -0.7135
     27 H1          1.5324    5.7598   -1.2414 H         1 <0>         0.1593
     28 H2         -5.6056    3.4008    5.1751 H         1 <0>         0.1589
     29 H3          3.4434    4.9815   -2.5964 H         1 <0>         0.1682
     30 H4         -7.6133    2.2625    6.0511 H         1 <0>         0.1676
     31 H5         -0.4092    4.2801   -0.8249 H         1 <0>         0.1247
     32 H6         -3.8034    2.1133    4.0673 H         1 <0>         0.1259
     33 H7          3.4560    2.6923   -3.5736 H         1 <0>         0.1640
     34 H8         -7.8655   -0.2047    5.8400 H         1 <0>         0.1649
     35 H9         -0.3271   -0.4855   -2.8896 H         1 <0>         0.1783
     36 H10        -4.3849   -3.0319    3.6557 H         1 <0>         0.1787
     37 H11        -4.1417    0.3801   -0.6468 H         1 <0>         0.1444
     38 H12        -3.4683    1.0500    0.8671 H         1 <0>         0.1211
     39 H13        -0.9738    0.8269    1.2569 H         1 <0>         0.1184
     40 H14        -0.0003    0.0096   -0.0000 H         1 <0>         0.1625
     41 H15        -4.5941   -1.1614    1.3542 H         1 <0>         0.1217
     42 H16        -3.6174   -1.9434    0.0908 H         1 <0>         0.1444
     43 H17        -1.1171   -2.1669    0.4815 H         1 <0>         0.1176
     44 H18        -0.4488   -1.5318    2.0021 H         1 <0>         0.1624
     45 H19        -1.8939    2.3385   -0.5306 H         1 <0>         0.1105
     46 H20        -2.6347    1.6049   -1.9601 H         1 <0>         0.1015
     47 H21        -2.5025    0.4062    2.8614 H         1 <0>         0.1098
     48 H22        -1.8685   -0.9787    3.7616 H         1 <0>         0.1013
     49 H23         1.8753    0.3619   -3.7120 H         1 <0>         0.4881
     50 H24        -6.5161   -2.4653    4.8313 H         1 <0>         0.4882
     51 H25        -1.9940   -0.4842   -1.2050 H         1 <0>         0.4431
     52 H26        -2.6851   -2.4029    2.1217 H         1 <0>         0.4430
@<TRIPOS>BOND
     1    1    3 ar
     2    1    5 ar
     3    2    4 ar
     4    2    6 ar
     5    3    7 ar
     6    4    8 ar
     7    5   11 ar
     8    6   12 ar
     9    7   15 ar
    10    8   16 ar
    11    9   13 2
    12    9   23 1
    13   10   14 2
    14   10   24 1
    15   11   13 1
    16   11   15 ar
    17   12   14 1
    18   12   16 ar
    19   13   21 1
    20   14   22 1
    21   15   23 1
    22   16   24 1
    23   17   19 1
    24   17   25 1
    25   18   20 1
    26   18   25 1
    27   19   26 1
    28   20   26 1
    29   21   25 1
    30   22   26 1
    31    1   27 1
    32    2   28 1
    33    3   29 1
    34    4   30 1
    35    5   31 1
    36    6   32 1
    37    7   33 1
    38    8   34 1
    39    9   35 1
    40   10   36 1
    41   17   37 1
    42   17   38 1
    43   18   39 1
    44   18   40 1
    45   19   41 1
    46   19   42 1
    47   20   43 1
    48   20   44 1
    49   21   45 1
    50   21   46 1
    51   22   47 1
    52   22   48 1
    53   23   49 1
    54   24   50 1
    55   25   51 1
    56   26   52 1
@<TRIPOS>MOLECULE
ZINC00092235_24
   52    56     0     0     0
SMALL
USER_CHARGES

mmff94s_NoEstat = 55.35
@<TRIPOS>ATOM
      1 C1         -4.2465    5.2719   -2.5574 C.ar      1 <0>        -0.0978
      2 C2          0.0684    1.8081    5.9715 C.ar      1 <0>        -0.0984
      3 C3         -5.1021    5.0050   -3.6244 C.ar      1 <0>        -0.0943
      4 C4          0.8694    0.9921    6.7679 C.ar      1 <0>        -0.0957
      5 C5         -3.4318    4.2668   -2.0237 C.ar      1 <0>        -0.1265
      6 C6         -0.8248    1.2532    5.0479 C.ar      1 <0>        -0.1261
      7 C7         -5.1711    3.7290   -4.1911 C.ar      1 <0>        -0.1009
      8 C8          0.8040   -0.4006    6.6678 C.ar      1 <0>        -0.1004
      9 C9         -3.2867    0.8042   -3.1856 C.2       1 <0>         0.0849
     10 C10        -1.3243   -2.3184    4.4523 C.2       1 <0>         0.0824
     11 C11        -3.4843    2.9726   -2.5785 C.ar      1 <0>        -0.0700
     12 C12        -0.9082   -0.1484    4.9292 C.ar      1 <0>        -0.0695
     13 C13        -2.8353    1.7498   -2.3149 C.2       1 <0>        -0.3121
     14 C14        -1.6635   -1.0370    4.1380 C.2       1 <0>        -0.3108
     15 C15        -4.3510    2.7341   -3.6472 C.ar      1 <0>         0.0626
     16 C16        -0.0935   -0.9413    5.7402 C.ar      1 <0>         0.0622
     17 C17        -3.4142    0.2187    0.1554 C.3       1 <0>         0.0793
     18 C18        -0.9527   -0.0013    0.5399 C.3       1 <0>         0.0777
     19 C19        -3.6381   -1.1269    0.8216 C.3       1 <0>         0.0735
     20 C20        -1.1775   -1.3469    1.2061 C.3       1 <0>         0.0792
     21 C21        -1.8086    1.5140   -1.2466 C.3       1 <0>         0.2470
     22 C22        -2.6823   -0.6456    3.1086 C.3       1 <0>         0.2493
     23 N1         -4.2100    1.4096   -3.9953 N.pl3     1 <0>        -0.5192
     24 N2         -0.3674   -2.2542    5.4294 N.pl3     1 <0>        -0.5179
     25 N3         -2.0428    0.2454   -0.4742 N.4       1 <0>        -0.7137
     26 N4         -2.5509   -1.4196    1.8252 N.4       1 <0>        -0.7135
     27 H1         -4.2105    6.2715   -2.1331 H         1 <0>         0.1593
     28 H2          0.1372    2.8883    6.0667 H         1 <0>         0.1589
     29 H3         -5.7261    5.8002   -4.0238 H         1 <0>         0.1682
     30 H4          1.5562    1.4439    7.4788 H         1 <0>         0.1676
     31 H5         -2.7699    4.4906   -1.1919 H         1 <0>         0.1247
     32 H6         -1.4427    1.9026    4.4343 H         1 <0>         0.1259
     33 H7         -5.8380    3.5226   -5.0215 H         1 <0>         0.1640
     34 H8          1.4284   -1.0346    7.2883 H         1 <0>         0.1649
     35 H9         -3.0465   -0.2421   -3.3146 H         1 <0>         0.1783
     36 H10        -1.6655   -3.2749    4.0809 H         1 <0>         0.1787
     37 H11        -4.1417    0.3801   -0.6468 H         1 <0>         0.1444
     38 H12        -3.4683    1.0500    0.8671 H         1 <0>         0.1211
     39 H13        -0.9738    0.8269    1.2569 H         1 <0>         0.1184
     40 H14        -0.0003    0.0096   -0.0000 H         1 <0>         0.1625
     41 H15        -4.5941   -1.1614    1.3542 H         1 <0>         0.1217
     42 H16        -3.6174   -1.9434    0.0908 H         1 <0>         0.1444
     43 H17        -1.1171   -2.1669    0.4815 H         1 <0>         0.1176
     44 H18        -0.4488   -1.5318    2.0021 H         1 <0>         0.1624
     45 H19        -0.8026    1.4412   -1.6735 H         1 <0>         0.1105
     46 H20        -1.8030    2.3304   -0.5164 H         1 <0>         0.1015
     47 H21        -3.7006   -0.8146    3.4750 H         1 <0>         0.1098
     48 H22        -2.5934    0.4144    2.8472 H         1 <0>         0.1013
     49 H23        -4.7156    0.9515   -4.7409 H         1 <0>         0.4881
     50 H24         0.0748   -3.0541    5.8607 H         1 <0>         0.4882
     51 H25        -1.9940   -0.4842   -1.2050 H         1 <0>         0.4431
     52 H26        -2.6851   -2.4029    2.1217 H         1 <0>         0.4430
@<TRIPOS>BOND
     1    1    3 ar
     2    1    5 ar
     3    2    4 ar
     4    2    6 ar
     5    3    7 ar
     6    4    8 ar
     7    5   11 ar
     8    6   12 ar
     9    7   15 ar
    10    8   16 ar
    11    9   13 2
    12    9   23 1
    13   10   14 2
    14   10   24 1
    15   11   13 1
    16   11   15 ar
    17   12   14 1
    18   12   16 ar
    19   13   21 1
    20   14   22 1
    21   15   23 1
    22   16   24 1
    23   17   19 1
    24   17   25 1
    25   18   20 1
    26   18   25 1
    27   19   26 1
    28   20   26 1
    29   21   25 1
    30   22   26 1
    31    1   27 1
    32    2   28 1
    33    3   29 1
    34    4   30 1
    35    5   31 1
    36    6   32 1
    37    7   33 1
    38    8   34 1
    39    9   35 1
    40   10   36 1
    41   17   37 1
    42   17   38 1
    43   18   39 1
    44   18   40 1
    45   19   41 1
    46   19   42 1
    47   20   43 1
    48   20   44 1
    49   21   45 1
    50   21   46 1
    51   22   47 1
    52   22   48 1
    53   23   49 1
    54   24   50 1
    55   25   51 1
    56   26   52 1
@<TRIPOS>MOLECULE
ZINC00092235_25
   52    56     0     0     0
SMALL
USER_CHARGES

mmff94s_NoEstat = 55.46
@<TRIPOS>ATOM
      1 C1         -2.0675    0.3064   -5.7475 C.ar      1 <0>        -0.0978
      2 C2         -4.3008   -3.6975    6.2471 C.ar      1 <0>        -0.0984
      3 C3         -3.2380    0.7592   -6.3529 C.ar      1 <0>        -0.0943
      4 C4         -5.6367   -3.4690    6.5709 C.ar      1 <0>        -0.0957
      5 C5         -1.8105    0.5713   -4.3974 C.ar      1 <0>        -0.1265
      6 C6         -3.6387   -2.8829    5.3213 C.ar      1 <0>        -0.1261
      7 C7         -4.1869    1.4892   -5.6313 C.ar      1 <0>        -0.1009
      8 C8         -6.3522   -2.4224    5.9821 C.ar      1 <0>        -0.1004
      9 C9         -4.0005    2.4337   -2.1400 C.2       1 <0>         0.0849
     10 C10        -5.1110   -0.0470    3.5464 C.2       1 <0>         0.0824
     11 C11        -2.7526    1.3054   -3.6497 C.ar      1 <0>        -0.0700
     12 C12        -4.3396   -1.8216    4.7148 C.ar      1 <0>        -0.0695
     13 C13        -2.8353    1.7498   -2.3149 C.2       1 <0>        -0.3121
     14 C14        -4.0166   -0.8268    3.7704 C.2       1 <0>        -0.3108
     15 C15        -3.9167    1.7465   -4.2826 C.ar      1 <0>         0.0626
     16 C16        -5.6775   -1.6163    5.0585 C.ar      1 <0>         0.0622
     17 C17        -3.4142    0.2187    0.1554 C.3       1 <0>         0.0793
     18 C18        -0.9527   -0.0013    0.5399 C.3       1 <0>         0.0777
     19 C19        -3.6381   -1.1269    0.8216 C.3       1 <0>         0.0735
     20 C20        -1.1775   -1.3469    1.2061 C.3       1 <0>         0.0792
     21 C21        -1.8086    1.5140   -1.2466 C.3       1 <0>         0.2470
     22 C22        -2.6823   -0.6456    3.1086 C.3       1 <0>         0.2493
     23 N1         -4.6556    2.4284   -3.3422 N.pl3     1 <0>        -0.5192
     24 N2         -6.1200   -0.5324    4.3341 N.pl3     1 <0>        -0.5179
     25 N3         -2.0428    0.2454   -0.4742 N.4       1 <0>        -0.7137
     26 N4         -2.5509   -1.4196    1.8252 N.4       1 <0>        -0.7135
     27 H1         -1.3443   -0.2588   -6.3290 H         1 <0>         0.1593
     28 H2         -3.7653   -4.5176    6.7174 H         1 <0>         0.1589
     29 H3         -3.4178    0.5423   -7.4026 H         1 <0>         0.1682
     30 H4         -6.1317   -4.1135    7.2925 H         1 <0>         0.1676
     31 H5         -0.8936    0.2113   -3.9397 H         1 <0>         0.1247
     32 H6         -2.5970   -3.0736    5.0795 H         1 <0>         0.1259
     33 H7         -5.0976    1.8414   -6.1041 H         1 <0>         0.1640
     34 H8         -7.3924   -2.2459    6.2349 H         1 <0>         0.1649
     35 H9         -4.4347    2.9266   -1.2811 H         1 <0>         0.1783
     36 H10        -5.2785    0.8075    2.9053 H         1 <0>         0.1787
     37 H11        -4.1417    0.3801   -0.6468 H         1 <0>         0.1444
     38 H12        -3.4683    1.0500    0.8671 H         1 <0>         0.1211
     39 H13        -0.9738    0.8269    1.2569 H         1 <0>         0.1184
     40 H14        -0.0003    0.0096   -0.0000 H         1 <0>         0.1625
     41 H15        -4.5941   -1.1614    1.3542 H         1 <0>         0.1217
     42 H16        -3.6174   -1.9434    0.0908 H         1 <0>         0.1444
     43 H17        -1.1171   -2.1669    0.4815 H         1 <0>         0.1176
     44 H18        -0.4488   -1.5318    2.0021 H         1 <0>         0.1624
     45 H19        -0.8026    1.4412   -1.6735 H         1 <0>         0.1105
     46 H20        -1.8030    2.3304   -0.5164 H         1 <0>         0.1015
     47 H21        -2.5025    0.4062    2.8614 H         1 <0>         0.1098
     48 H22        -1.8685   -0.9787    3.7616 H         1 <0>         0.1013
     49 H23        -5.5519    2.8620   -3.5156 H         1 <0>         0.4881
     50 H24        -7.0550   -0.1512    4.3783 H         1 <0>         0.4882
     51 H25        -1.9940   -0.4842   -1.2050 H         1 <0>         0.4431
     52 H26        -2.6851   -2.4029    2.1217 H         1 <0>         0.4430
@<TRIPOS>BOND
     1    1    3 ar
     2    1    5 ar
     3    2    4 ar
     4    2    6 ar
     5    3    7 ar
     6    4    8 ar
     7    5   11 ar
     8    6   12 ar
     9    7   15 ar
    10    8   16 ar
    11    9   13 2
    12    9   23 1
    13   10   14 2
    14   10   24 1
    15   11   13 1
    16   11   15 ar
    17   12   14 1
    18   12   16 ar
    19   13   21 1
    20   14   22 1
    21   15   23 1
    22   16   24 1
    23   17   19 1
    24   17   25 1
    25   18   20 1
    26   18   25 1
    27   19   26 1
    28   20   26 1
    29   21   25 1
    30   22   26 1
    31    1   27 1
    32    2   28 1
    33    3   29 1
    34    4   30 1
    35    5   31 1
    36    6   32 1
    37    7   33 1
    38    8   34 1
    39    9   35 1
    40   10   36 1
    41   17   37 1
    42   17   38 1
    43   18   39 1
    44   18   40 1
    45   19   41 1
    46   19   42 1
    47   20   43 1
    48   20   44 1
    49   21   45 1
    50   21   46 1
    51   22   47 1
    52   22   48 1
    53   23   49 1
    54   24   50 1
    55   25   51 1
    56   26   52 1
@<TRIPOS>MOLECULE
ZINC00092235_26
   52    56     0     0     0
SMALL
USER_CHARGES

mmff94s_NoEstat = 55.50
@<TRIPOS>ATOM
      1 C1         -0.4126    0.1540   -5.4874 C.ar      1 <0>        -0.0978
      2 C2         -4.3008   -3.6975    6.2471 C.ar      1 <0>        -0.0984
      3 C3          0.9463    0.3802   -5.6977 C.ar      1 <0>        -0.0943
      4 C4         -5.6367   -3.4690    6.5709 C.ar      1 <0>        -0.0957
      5 C5         -1.0163    0.4975   -4.2723 C.ar      1 <0>        -0.1265
      6 C6         -3.6387   -2.8829    5.3213 C.ar      1 <0>        -0.1261
      7 C7          1.7435    0.9551   -4.7039 C.ar      1 <0>        -0.1009
      8 C8         -6.3522   -2.4224    5.9821 C.ar      1 <0>        -0.1004
      9 C9          0.6754    2.0153   -1.4097 C.2       1 <0>         0.0849
     10 C10        -5.1110   -0.0470    3.5464 C.2       1 <0>         0.0824
     11 C11        -0.2327    1.0783   -3.2555 C.ar      1 <0>        -0.0700
     12 C12        -4.3396   -1.8216    4.7148 C.ar      1 <0>        -0.0695
     13 C13        -0.4823    1.5392   -1.9474 C.2       1 <0>        -0.3121
     14 C14        -4.0166   -0.8268    3.7704 C.2       1 <0>        -0.3108
     15 C15         1.1264    1.2933   -3.4943 C.ar      1 <0>         0.0626
     16 C16        -5.6775   -1.6163    5.0585 C.ar      1 <0>         0.0622
     17 C17        -3.4142    0.2187    0.1554 C.3       1 <0>         0.0793
     18 C18        -0.9527   -0.0013    0.5399 C.3       1 <0>         0.0777
     19 C19        -3.6381   -1.1269    0.8216 C.3       1 <0>         0.0735
     20 C20        -1.1775   -1.3469    1.2061 C.3       1 <0>         0.0792
     21 C21        -1.8086    1.5140   -1.2466 C.3       1 <0>         0.2470
     22 C22        -2.6823   -0.6456    3.1086 C.3       1 <0>         0.2493
     23 N1          1.6523    1.8632   -2.3568 N.pl3     1 <0>        -0.5192
     24 N2         -6.1200   -0.5324    4.3341 N.pl3     1 <0>        -0.5179
     25 N3         -2.0428    0.2454   -0.4742 N.4       1 <0>        -0.7137
     26 N4         -2.5509   -1.4196    1.8252 N.4       1 <0>        -0.7135
     27 H1         -1.0120   -0.2948   -6.2748 H         1 <0>         0.1593
     28 H2         -3.7653   -4.5176    6.7174 H         1 <0>         0.1589
     29 H3          1.3949    0.1060   -6.6489 H         1 <0>         0.1682
     30 H4         -6.1317   -4.1135    7.2925 H         1 <0>         0.1676
     31 H5         -2.0768    0.3151   -4.1237 H         1 <0>         0.1247
     32 H6         -2.5970   -3.0736    5.0795 H         1 <0>         0.1259
     33 H7          2.8013    1.1303   -4.8688 H         1 <0>         0.1640
     34 H8         -7.3924   -2.2459    6.2349 H         1 <0>         0.1649
     35 H9          0.9078    2.4488   -0.4468 H         1 <0>         0.1783
     36 H10        -5.2785    0.8075    2.9053 H         1 <0>         0.1787
     37 H11        -4.1417    0.3801   -0.6468 H         1 <0>         0.1444
     38 H12        -3.4683    1.0500    0.8671 H         1 <0>         0.1211
     39 H13        -0.9738    0.8269    1.2569 H         1 <0>         0.1184
     40 H14        -0.0003    0.0096   -0.0000 H         1 <0>         0.1625
     41 H15        -4.5941   -1.1614    1.3542 H         1 <0>         0.1217
     42 H16        -3.6174   -1.9434    0.0908 H         1 <0>         0.1444
     43 H17        -1.1171   -2.1669    0.4815 H         1 <0>         0.1176
     44 H18        -0.4488   -1.5318    2.0021 H         1 <0>         0.1624
     45 H19        -1.8939    2.3385   -0.5306 H         1 <0>         0.1105
     46 H20        -2.6347    1.6049   -1.9601 H         1 <0>         0.1015
     47 H21        -2.5025    0.4062    2.8614 H         1 <0>         0.1098
     48 H22        -1.8685   -0.9787    3.7616 H         1 <0>         0.1013
     49 H23         2.6199    2.1301   -2.2390 H         1 <0>         0.4881
     50 H24        -7.0550   -0.1512    4.3783 H         1 <0>         0.4882
     51 H25        -1.9940   -0.4842   -1.2050 H         1 <0>         0.4431
     52 H26        -2.6851   -2.4029    2.1217 H         1 <0>         0.4430
@<TRIPOS>BOND
     1    1    3 ar
     2    1    5 ar
     3    2    4 ar
     4    2    6 ar
     5    3    7 ar
     6    4    8 ar
     7    5   11 ar
     8    6   12 ar
     9    7   15 ar
    10    8   16 ar
    11    9   13 2
    12    9   23 1
    13   10   14 2
    14   10   24 1
    15   11   13 1
    16   11   15 ar
    17   12   14 1
    18   12   16 ar
    19   13   21 1
    20   14   22 1
    21   15   23 1
    22   16   24 1
    23   17   19 1
    24   17   25 1
    25   18   20 1
    26   18   25 1
    27   19   26 1
    28   20   26 1
    29   21   25 1
    30   22   26 1
    31    1   27 1
    32    2   28 1
    33    3   29 1
    34    4   30 1
    35    5   31 1
    36    6   32 1
    37    7   33 1
    38    8   34 1
    39    9   35 1
    40   10   36 1
    41   17   37 1
    42   17   38 1
    43   18   39 1
    44   18   40 1
    45   19   41 1
    46   19   42 1
    47   20   43 1
    48   20   44 1
    49   21   45 1
    50   21   46 1
    51   22   47 1
    52   22   48 1
    53   23   49 1
    54   24   50 1
    55   25   51 1
    56   26   52 1
@<TRIPOS>MOLECULE
ZINC00092235_27
   52    56     0     0     0
SMALL
USER_CHARGES

mmff94s_NoEstat = 55.51
@<TRIPOS>ATOM
      1 C1         -2.0675    0.3064   -5.7475 C.ar      1 <0>        -0.0978
      2 C2         -2.6455   -3.8423    6.5091 C.ar      1 <0>        -0.0984
      3 C3         -3.2380    0.7592   -6.3529 C.ar      1 <0>        -0.0943
      4 C4         -1.4520   -3.8395    7.2284 C.ar      1 <0>        -0.0957
      5 C5         -1.8105    0.5713   -4.3974 C.ar      1 <0>        -0.1265
      6 C6         -2.8442   -2.9519    5.4476 C.ar      1 <0>        -0.1261
      7 C7         -4.1869    1.4892   -5.6313 C.ar      1 <0>        -0.1009
      8 C8         -0.4216   -2.9498    6.9115 C.ar      1 <0>        -0.1004
      9 C9         -4.0005    2.4337   -2.1400 C.2       1 <0>         0.0849
     10 C10        -0.4351   -0.4647    4.2770 C.2       1 <0>         0.0824
     11 C11        -2.7526    1.3054   -3.6497 C.ar      1 <0>        -0.0700
     12 C12        -1.8195   -2.0456    5.1098 C.ar      1 <0>        -0.0695
     13 C13        -2.8353    1.7498   -2.3149 C.2       1 <0>        -0.3121
     14 C14        -1.6635   -1.0370    4.1380 C.2       1 <0>        -0.3108
     15 C15        -3.9167    1.7465   -4.2826 C.ar      1 <0>         0.0626
     16 C16        -0.6342   -2.0655    5.8480 C.ar      1 <0>         0.0622
     17 C17        -3.4142    0.2187    0.1554 C.3       1 <0>         0.0793
     18 C18        -0.9527   -0.0013    0.5399 C.3       1 <0>         0.0777
     19 C19        -3.6381   -1.1269    0.8216 C.3       1 <0>         0.0735
     20 C20        -1.1775   -1.3469    1.2061 C.3       1 <0>         0.0792
     21 C21        -1.8086    1.5140   -1.2466 C.3       1 <0>         0.2470
     22 C22        -2.6823   -0.6456    3.1086 C.3       1 <0>         0.2493
     23 N1         -4.6556    2.4284   -3.3422 N.pl3     1 <0>        -0.5192
     24 N2          0.1879   -1.0955    5.3203 N.pl3     1 <0>        -0.5179
     25 N3         -2.0428    0.2454   -0.4742 N.4       1 <0>        -0.7137
     26 N4         -2.5509   -1.4196    1.8252 N.4       1 <0>        -0.7135
     27 H1         -1.3443   -0.2588   -6.3290 H         1 <0>         0.1593
     28 H2         -3.4325   -4.5429    6.7743 H         1 <0>         0.1589
     29 H3         -3.4178    0.5423   -7.4026 H         1 <0>         0.1682
     30 H4         -1.3186   -4.5395    8.0490 H         1 <0>         0.1676
     31 H5         -0.8936    0.2113   -3.9397 H         1 <0>         0.1247
     32 H6         -3.7801   -2.9664    4.8962 H         1 <0>         0.1259
     33 H7         -5.0976    1.8414   -6.1041 H         1 <0>         0.1640
     34 H8          0.5069   -2.9486    7.4726 H         1 <0>         0.1649
     35 H9         -4.4347    2.9266   -1.2811 H         1 <0>         0.1783
     36 H10         0.0640    0.3300    3.7398 H         1 <0>         0.1787
     37 H11        -4.1417    0.3801   -0.6468 H         1 <0>         0.1444
     38 H12        -3.4683    1.0500    0.8671 H         1 <0>         0.1211
     39 H13        -0.9738    0.8269    1.2569 H         1 <0>         0.1184
     40 H14        -0.0003    0.0096   -0.0000 H         1 <0>         0.1625
     41 H15        -4.5941   -1.1614    1.3542 H         1 <0>         0.1217
     42 H16        -3.6174   -1.9434    0.0908 H         1 <0>         0.1444
     43 H17        -1.1171   -2.1669    0.4815 H         1 <0>         0.1176
     44 H18        -0.4488   -1.5318    2.0021 H         1 <0>         0.1624
     45 H19        -0.8026    1.4412   -1.6735 H         1 <0>         0.1105
     46 H20        -1.8030    2.3304   -0.5164 H         1 <0>         0.1015
     47 H21        -3.7006   -0.8146    3.4750 H         1 <0>         0.1098
     48 H22        -2.5934    0.4144    2.8472 H         1 <0>         0.1013
     49 H23        -5.5519    2.8620   -3.5156 H         1 <0>         0.4881
     50 H24         1.1169   -0.8809    5.6557 H         1 <0>         0.4882
     51 H25        -1.9940   -0.4842   -1.2050 H         1 <0>         0.4431
     52 H26        -2.6851   -2.4029    2.1217 H         1 <0>         0.4430
@<TRIPOS>BOND
     1    1    3 ar
     2    1    5 ar
     3    2    4 ar
     4    2    6 ar
     5    3    7 ar
     6    4    8 ar
     7    5   11 ar
     8    6   12 ar
     9    7   15 ar
    10    8   16 ar
    11    9   13 2
    12    9   23 1
    13   10   14 2
    14   10   24 1
    15   11   13 1
    16   11   15 ar
    17   12   14 1
    18   12   16 ar
    19   13   21 1
    20   14   22 1
    21   15   23 1
    22   16   24 1
    23   17   19 1
    24   17   25 1
    25   18   20 1
    26   18   25 1
    27   19   26 1
    28   20   26 1
    29   21   25 1
    30   22   26 1
    31    1   27 1
    32    2   28 1
    33    3   29 1
    34    4   30 1
    35    5   31 1
    36    6   32 1
    37    7   33 1
    38    8   34 1
    39    9   35 1
    40   10   36 1
    41   17   37 1
    42   17   38 1
    43   18   39 1
    44   18   40 1
    45   19   41 1
    46   19   42 1
    47   20   43 1
    48   20   44 1
    49   21   45 1
    50   21   46 1
    51   22   47 1
    52   22   48 1
    53   23   49 1
    54   24   50 1
    55   25   51 1
    56   26   52 1
@<TRIPOS>MOLECULE
ZINC00092235_28
   52    56     0     0     0
SMALL
USER_CHARGES

mmff94s_NoEstat = 55.61
@<TRIPOS>ATOM
      1 C1         -5.2125    4.4258    0.0646 C.ar      1 <0>        -0.0978
      2 C2         -5.7002    2.3231    5.0739 C.ar      1 <0>        -0.0984
      3 C3         -4.7488    5.4482    0.8901 C.ar      1 <0>        -0.0943
      4 C4         -6.8331    1.6798    5.5686 C.ar      1 <0>        -0.0957
      5 C5         -4.3371    3.4527   -0.4311 C.ar      1 <0>        -0.1265
      6 C6         -4.6803    1.5973    4.4479 C.ar      1 <0>        -0.1261
      7 C7         -3.3996    5.5313    1.2460 C.ar      1 <0>        -0.1009
      8 C8         -6.9832    0.2948    5.4541 C.ar      1 <0>        -0.1004
      9 C9         -0.7476    3.2807    0.2371 C.2       1 <0>         0.0849
     10 C10        -4.6514   -2.0212    3.9324 C.2       1 <0>         0.0824
     11 C11        -2.9724    3.5159   -0.0858 C.ar      1 <0>        -0.0700
     12 C12        -4.8094    0.2000    4.3210 C.ar      1 <0>        -0.0695
     13 C13        -1.8337    2.7409   -0.3834 C.2       1 <0>        -0.3121
     14 C14        -4.0166   -0.8268    3.7704 C.2       1 <0>        -0.3108
     15 C15        -2.5361    4.5517    0.7430 C.ar      1 <0>         0.0626
     16 C16        -5.9555   -0.4178    4.8260 C.ar      1 <0>         0.0622
     17 C17        -3.4142    0.2187    0.1554 C.3       1 <0>         0.0793
     18 C18        -0.9527   -0.0013    0.5399 C.3       1 <0>         0.0777
     19 C19        -3.6381   -1.1269    0.8216 C.3       1 <0>         0.0735
     20 C20        -1.1775   -1.3469    1.2061 C.3       1 <0>         0.0792
     21 C21        -1.8086    1.5140   -1.2466 C.3       1 <0>         0.2470
     22 C22        -2.6823   -0.6456    3.1086 C.3       1 <0>         0.2493
     23 N1         -1.1815    4.3837    0.9223 N.pl3     1 <0>        -0.5192
     24 N2         -5.8325   -1.7660    4.5760 N.pl3     1 <0>        -0.5179
     25 N3         -2.0428    0.2454   -0.4742 N.4       1 <0>        -0.7137
     26 N4         -2.5509   -1.4196    1.8252 N.4       1 <0>        -0.7135
     27 H1         -6.2657    4.3821   -0.1989 H         1 <0>         0.1593
     28 H2         -5.6056    3.4008    5.1751 H         1 <0>         0.1589
     29 H3         -5.4457    6.1936    1.2641 H         1 <0>         0.1682
     30 H4         -7.6133    2.2625    6.0511 H         1 <0>         0.1676
     31 H5         -4.7138    2.6617   -1.0733 H         1 <0>         0.1247
     32 H6         -3.8034    2.1133    4.0673 H         1 <0>         0.1259
     33 H7         -3.0400    6.3281    1.8884 H         1 <0>         0.1640
     34 H8         -7.8655   -0.2047    5.8400 H         1 <0>         0.1649
     35 H9          0.2946    2.9938    0.2631 H         1 <0>         0.1783
     36 H10        -4.3849   -3.0319    3.6557 H         1 <0>         0.1787
     37 H11        -4.1417    0.3801   -0.6468 H         1 <0>         0.1444
     38 H12        -3.4683    1.0500    0.8671 H         1 <0>         0.1211
     39 H13        -0.9738    0.8269    1.2569 H         1 <0>         0.1184
     40 H14        -0.0003    0.0096   -0.0000 H         1 <0>         0.1625
     41 H15        -4.5941   -1.1614    1.3542 H         1 <0>         0.1217
     42 H16        -3.6174   -1.9434    0.0908 H         1 <0>         0.1444
     43 H17        -1.1171   -2.1669    0.4815 H         1 <0>         0.1176
     44 H18        -0.4488   -1.5318    2.0021 H         1 <0>         0.1624
     45 H19        -2.5825    1.5585   -2.0204 H         1 <0>         0.1105
     46 H20        -0.8412    1.4029   -1.7481 H         1 <0>         0.1015
     47 H21        -2.5025    0.4062    2.8614 H         1 <0>         0.1098
     48 H22        -1.8685   -0.9787    3.7616 H         1 <0>         0.1013
     49 H23        -0.5934    4.9881    1.4794 H         1 <0>         0.4881
     50 H24        -6.5161   -2.4653    4.8313 H         1 <0>         0.4882
     51 H25        -1.9940   -0.4842   -1.2050 H         1 <0>         0.4431
     52 H26        -2.6851   -2.4029    2.1217 H         1 <0>         0.4430
@<TRIPOS>BOND
     1    1    3 ar
     2    1    5 ar
     3    2    4 ar
     4    2    6 ar
     5    3    7 ar
     6    4    8 ar
     7    5   11 ar
     8    6   12 ar
     9    7   15 ar
    10    8   16 ar
    11    9   13 2
    12    9   23 1
    13   10   14 2
    14   10   24 1
    15   11   13 1
    16   11   15 ar
    17   12   14 1
    18   12   16 ar
    19   13   21 1
    20   14   22 1
    21   15   23 1
    22   16   24 1
    23   17   19 1
    24   17   25 1
    25   18   20 1
    26   18   25 1
    27   19   26 1
    28   20   26 1
    29   21   25 1
    30   22   26 1
    31    1   27 1
    32    2   28 1
    33    3   29 1
    34    4   30 1
    35    5   31 1
    36    6   32 1
    37    7   33 1
    38    8   34 1
    39    9   35 1
    40   10   36 1
    41   17   37 1
    42   17   38 1
    43   18   39 1
    44   18   40 1
    45   19   41 1
    46   19   42 1
    47   20   43 1
    48   20   44 1
    49   21   45 1
    50   21   46 1
    51   22   47 1
    52   22   48 1
    53   23   49 1
    54   24   50 1
    55   25   51 1
    56   26   52 1
@<TRIPOS>MOLECULE
ZINC00092235_29
   52    56     0     0     0
SMALL
USER_CHARGES

mmff94s_NoEstat = 55.63
@<TRIPOS>ATOM
      1 C1          1.4887    3.8233    1.1152 C.ar      1 <0>        -0.0978
      2 C2          0.0684    1.8081    5.9715 C.ar      1 <0>        -0.0984
      3 C3          0.9816    4.9324    1.7894 C.ar      1 <0>        -0.0943
      4 C4          0.8694    0.9921    6.7679 C.ar      1 <0>        -0.0957
      5 C5          0.6499    3.0046    0.3504 C.ar      1 <0>        -0.1265
      6 C6         -0.8248    1.2532    5.0479 C.ar      1 <0>        -0.1261
      7 C7         -0.3760    5.2585    1.7214 C.ar      1 <0>        -0.1009
      8 C8          0.8040   -0.4006    6.6678 C.ar      1 <0>        -0.1004
      9 C9         -2.9458    3.4774   -0.1062 C.2       1 <0>         0.0849
     10 C10        -1.3243   -2.3184    4.4523 C.2       1 <0>         0.0824
     11 C11        -0.7224    3.3135    0.2670 C.ar      1 <0>        -0.0700
     12 C12        -0.9082   -0.1484    4.9292 C.ar      1 <0>        -0.0695
     13 C13        -1.8337    2.7409   -0.3834 C.2       1 <0>        -0.3121
     14 C14        -1.6635   -1.0370    4.1380 C.2       1 <0>        -0.3108
     15 C15        -1.2026    4.4311    0.9531 C.ar      1 <0>         0.0626
     16 C16        -0.0935   -0.9413    5.7402 C.ar      1 <0>         0.0622
     17 C17        -3.4142    0.2187    0.1554 C.3       1 <0>         0.0793
     18 C18        -0.9527   -0.0013    0.5399 C.3       1 <0>         0.0777
     19 C19        -3.6381   -1.1269    0.8216 C.3       1 <0>         0.0735
     20 C20        -1.1775   -1.3469    1.2061 C.3       1 <0>         0.0792
     21 C21        -1.8086    1.5140   -1.2466 C.3       1 <0>         0.2470
     22 C22        -2.6823   -0.6456    3.1086 C.3       1 <0>         0.2493
     23 N1         -2.5553    4.5062    0.7084 N.pl3     1 <0>        -0.5192
     24 N2         -0.3674   -2.2542    5.4294 N.pl3     1 <0>        -0.5179
     25 N3         -2.0428    0.2454   -0.4742 N.4       1 <0>        -0.7137
     26 N4         -2.5509   -1.4196    1.8252 N.4       1 <0>        -0.7135
     27 H1          2.5476    3.5893    1.1835 H         1 <0>         0.1593
     28 H2          0.1372    2.8883    6.0667 H         1 <0>         0.1589
     29 H3          1.6506    5.5548    2.3777 H         1 <0>         0.1682
     30 H4          1.5562    1.4439    7.4788 H         1 <0>         0.1676
     31 H5          1.0603    2.1436   -0.1695 H         1 <0>         0.1247
     32 H6         -1.4427    1.9026    4.4343 H         1 <0>         0.1259
     33 H7         -0.7694    6.1221    2.2471 H         1 <0>         0.1640
     34 H8          1.4284   -1.0346    7.2883 H         1 <0>         0.1649
     35 H9         -3.9801    3.3766   -0.4049 H         1 <0>         0.1783
     36 H10        -1.6655   -3.2749    4.0809 H         1 <0>         0.1787
     37 H11        -4.1417    0.3801   -0.6468 H         1 <0>         0.1444
     38 H12        -3.4683    1.0500    0.8671 H         1 <0>         0.1211
     39 H13        -0.9738    0.8269    1.2569 H         1 <0>         0.1184
     40 H14        -0.0003    0.0096   -0.0000 H         1 <0>         0.1625
     41 H15        -4.5941   -1.1614    1.3542 H         1 <0>         0.1217
     42 H16        -3.6174   -1.9434    0.0908 H         1 <0>         0.1444
     43 H17        -1.1171   -2.1669    0.4815 H         1 <0>         0.1176
     44 H18        -0.4488   -1.5318    2.0021 H         1 <0>         0.1624
     45 H19        -2.5825    1.5585   -2.0204 H         1 <0>         0.1105
     46 H20        -0.8412    1.4029   -1.7481 H         1 <0>         0.1015
     47 H21        -3.7006   -0.8146    3.4750 H         1 <0>         0.1098
     48 H22        -2.5934    0.4144    2.8472 H         1 <0>         0.1013
     49 H23        -3.1702    5.2183    1.0775 H         1 <0>         0.4881
     50 H24         0.0748   -3.0541    5.8607 H         1 <0>         0.4882
     51 H25        -1.9940   -0.4842   -1.2050 H         1 <0>         0.4431
     52 H26        -2.6851   -2.4029    2.1217 H         1 <0>         0.4430
@<TRIPOS>BOND
     1    1    3 ar
     2    1    5 ar
     3    2    4 ar
     4    2    6 ar
     5    3    7 ar
     6    4    8 ar
     7    5   11 ar
     8    6   12 ar
     9    7   15 ar
    10    8   16 ar
    11    9   13 2
    12    9   23 1
    13   10   14 2
    14   10   24 1
    15   11   13 1
    16   11   15 ar
    17   12   14 1
    18   12   16 ar
    19   13   21 1
    20   14   22 1
    21   15   23 1
    22   16   24 1
    23   17   19 1
    24   17   25 1
    25   18   20 1
    26   18   25 1
    27   19   26 1
    28   20   26 1
    29   21   25 1
    30   22   26 1
    31    1   27 1
    32    2   28 1
    33    3   29 1
    34    4   30 1
    35    5   31 1
    36    6   32 1
    37    7   33 1
    38    8   34 1
    39    9   35 1
    40   10   36 1
    41   17   37 1
    42   17   38 1
    43   18   39 1
    44   18   40 1
    45   19   41 1
    46   19   42 1
    47   20   43 1
    48   20   44 1
    49   21   45 1
    50   21   46 1
    51   22   47 1
    52   22   48 1
    53   23   49 1
    54   24   50 1
    55   25   51 1
    56   26   52 1
@<TRIPOS>MOLECULE
ZINC00092235_30
   52    56     0     0     0
SMALL
USER_CHARGES

mmff94s_NoEstat = 55.98
@<TRIPOS>ATOM
      1 C1         -5.2125    4.4258    0.0646 C.ar      1 <0>        -0.0978
      2 C2          0.0684    1.8081    5.9715 C.ar      1 <0>        -0.0984
      3 C3         -4.7488    5.4482    0.8901 C.ar      1 <0>        -0.0943
      4 C4          0.8694    0.9921    6.7679 C.ar      1 <0>        -0.0957
      5 C5         -4.3371    3.4527   -0.4311 C.ar      1 <0>        -0.1265
      6 C6         -0.8248    1.2532    5.0479 C.ar      1 <0>        -0.1261
      7 C7         -3.3996    5.5313    1.2460 C.ar      1 <0>        -0.1009
      8 C8          0.8040   -0.4006    6.6678 C.ar      1 <0>        -0.1004
      9 C9         -0.7476    3.2807    0.2371 C.2       1 <0>         0.0849
     10 C10        -1.3243   -2.3184    4.4523 C.2       1 <0>         0.0824
     11 C11        -2.9724    3.5159   -0.0858 C.ar      1 <0>        -0.0700
     12 C12        -0.9082   -0.1484    4.9292 C.ar      1 <0>        -0.0695
     13 C13        -1.8337    2.7409   -0.3834 C.2       1 <0>        -0.3121
     14 C14        -1.6635   -1.0370    4.1380 C.2       1 <0>        -0.3108
     15 C15        -2.5361    4.5517    0.7430 C.ar      1 <0>         0.0626
     16 C16        -0.0935   -0.9413    5.7402 C.ar      1 <0>         0.0622
     17 C17        -3.4142    0.2187    0.1554 C.3       1 <0>         0.0793
     18 C18        -0.9527   -0.0013    0.5399 C.3       1 <0>         0.0777
     19 C19        -3.6381   -1.1269    0.8216 C.3       1 <0>         0.0735
     20 C20        -1.1775   -1.3469    1.2061 C.3       1 <0>         0.0792
     21 C21        -1.8086    1.5140   -1.2466 C.3       1 <0>         0.2470
     22 C22        -2.6823   -0.6456    3.1086 C.3       1 <0>         0.2493
     23 N1         -1.1815    4.3837    0.9223 N.pl3     1 <0>        -0.5192
     24 N2         -0.3674   -2.2542    5.4294 N.pl3     1 <0>        -0.5179
     25 N3         -2.0428    0.2454   -0.4742 N.4       1 <0>        -0.7137
     26 N4         -2.5509   -1.4196    1.8252 N.4       1 <0>        -0.7135
     27 H1         -6.2657    4.3821   -0.1989 H         1 <0>         0.1593
     28 H2          0.1372    2.8883    6.0667 H         1 <0>         0.1589
     29 H3         -5.4457    6.1936    1.2641 H         1 <0>         0.1682
     30 H4          1.5562    1.4439    7.4788 H         1 <0>         0.1676
     31 H5         -4.7138    2.6617   -1.0733 H         1 <0>         0.1247
     32 H6         -1.4427    1.9026    4.4343 H         1 <0>         0.1259
     33 H7         -3.0400    6.3281    1.8884 H         1 <0>         0.1640
     34 H8          1.4284   -1.0346    7.2883 H         1 <0>         0.1649
     35 H9          0.2946    2.9938    0.2631 H         1 <0>         0.1783
     36 H10        -1.6655   -3.2749    4.0809 H         1 <0>         0.1787
     37 H11        -4.1417    0.3801   -0.6468 H         1 <0>         0.1444
     38 H12        -3.4683    1.0500    0.8671 H         1 <0>         0.1211
     39 H13        -0.9738    0.8269    1.2569 H         1 <0>         0.1184
     40 H14        -0.0003    0.0096   -0.0000 H         1 <0>         0.1625
     41 H15        -4.5941   -1.1614    1.3542 H         1 <0>         0.1217
     42 H16        -3.6174   -1.9434    0.0908 H         1 <0>         0.1444
     43 H17        -1.1171   -2.1669    0.4815 H         1 <0>         0.1176
     44 H18        -0.4488   -1.5318    2.0021 H         1 <0>         0.1624
     45 H19        -2.5825    1.5585   -2.0204 H         1 <0>         0.1105
     46 H20        -0.8412    1.4029   -1.7481 H         1 <0>         0.1015
     47 H21        -3.7006   -0.8146    3.4750 H         1 <0>         0.1098
     48 H22        -2.5934    0.4144    2.8472 H         1 <0>         0.1013
     49 H23        -0.5934    4.9881    1.4794 H         1 <0>         0.4881
     50 H24         0.0748   -3.0541    5.8607 H         1 <0>         0.4882
     51 H25        -1.9940   -0.4842   -1.2050 H         1 <0>         0.4431
     52 H26        -2.6851   -2.4029    2.1217 H         1 <0>         0.4430
@<TRIPOS>BOND
     1    1    3 ar
     2    1    5 ar
     3    2    4 ar
     4    2    6 ar
     5    3    7 ar
     6    4    8 ar
     7    5   11 ar
     8    6   12 ar
     9    7   15 ar
    10    8   16 ar
    11    9   13 2
    12    9   23 1
    13   10   14 2
    14   10   24 1
    15   11   13 1
    16   11   15 ar
    17   12   14 1
    18   12   16 ar
    19   13   21 1
    20   14   22 1
    21   15   23 1
    22   16   24 1
    23   17   19 1
    24   17   25 1
    25   18   20 1
    26   18   25 1
    27   19   26 1
    28   20   26 1
    29   21   25 1
    30   22   26 1
    31    1   27 1
    32    2   28 1
    33    3   29 1
    34    4   30 1
    35    5   31 1
    36    6   32 1
    37    7   33 1
    38    8   34 1
    39    9   35 1
    40   10   36 1
    41   17   37 1
    42   17   38 1
    43   18   39 1
    44   18   40 1
    45   19   41 1
    46   19   42 1
    47   20   43 1
    48   20   44 1
    49   21   45 1
    50   21   46 1
    51   22   47 1
    52   22   48 1
    53   23   49 1
    54   24   50 1
    55   25   51 1
    56   26   52 1
@<TRIPOS>MOLECULE
ZINC00092235_31
   52    56     0     0     0
SMALL
USER_CHARGES

mmff94s_NoEstat = 55.99
@<TRIPOS>ATOM
      1 C1          1.4887    3.8233    1.1152 C.ar      1 <0>        -0.0978
      2 C2         -5.7002    2.3231    5.0739 C.ar      1 <0>        -0.0984
      3 C3          0.9816    4.9324    1.7894 C.ar      1 <0>        -0.0943
      4 C4         -6.8331    1.6798    5.5686 C.ar      1 <0>        -0.0957
      5 C5          0.6499    3.0046    0.3504 C.ar      1 <0>        -0.1265
      6 C6         -4.6803    1.5973    4.4479 C.ar      1 <0>        -0.1261
      7 C7         -0.3760    5.2585    1.7214 C.ar      1 <0>        -0.1009
      8 C8         -6.9832    0.2948    5.4541 C.ar      1 <0>        -0.1004
      9 C9         -2.9458    3.4774   -0.1062 C.2       1 <0>         0.0849
     10 C10        -4.6514   -2.0212    3.9324 C.2       1 <0>         0.0824
     11 C11        -0.7224    3.3135    0.2670 C.ar      1 <0>        -0.0700
     12 C12        -4.8094    0.2000    4.3210 C.ar      1 <0>        -0.0695
     13 C13        -1.8337    2.7409   -0.3834 C.2       1 <0>        -0.3121
     14 C14        -4.0166   -0.8268    3.7704 C.2       1 <0>        -0.3108
     15 C15        -1.2026    4.4311    0.9531 C.ar      1 <0>         0.0626
     16 C16        -5.9555   -0.4178    4.8260 C.ar      1 <0>         0.0622
     17 C17        -3.4142    0.2187    0.1554 C.3       1 <0>         0.0793
     18 C18        -0.9527   -0.0013    0.5399 C.3       1 <0>         0.0777
     19 C19        -3.6381   -1.1269    0.8216 C.3       1 <0>         0.0735
     20 C20        -1.1775   -1.3469    1.2061 C.3       1 <0>         0.0792
     21 C21        -1.8086    1.5140   -1.2466 C.3       1 <0>         0.2470
     22 C22        -2.6823   -0.6456    3.1086 C.3       1 <0>         0.2493
     23 N1         -2.5553    4.5062    0.7084 N.pl3     1 <0>        -0.5192
     24 N2         -5.8325   -1.7660    4.5760 N.pl3     1 <0>        -0.5179
     25 N3         -2.0428    0.2454   -0.4742 N.4       1 <0>        -0.7137
     26 N4         -2.5509   -1.4196    1.8252 N.4       1 <0>        -0.7135
     27 H1          2.5476    3.5893    1.1835 H         1 <0>         0.1593
     28 H2         -5.6056    3.4008    5.1751 H         1 <0>         0.1589
     29 H3          1.6506    5.5548    2.3777 H         1 <0>         0.1682
     30 H4         -7.6133    2.2625    6.0511 H         1 <0>         0.1676
     31 H5          1.0603    2.1436   -0.1695 H         1 <0>         0.1247
     32 H6         -3.8034    2.1133    4.0673 H         1 <0>         0.1259
     33 H7         -0.7694    6.1221    2.2471 H         1 <0>         0.1640
     34 H8         -7.8655   -0.2047    5.8400 H         1 <0>         0.1649
     35 H9         -3.9801    3.3766   -0.4049 H         1 <0>         0.1783
     36 H10        -4.3849   -3.0319    3.6557 H         1 <0>         0.1787
     37 H11        -4.1417    0.3801   -0.6468 H         1 <0>         0.1444
     38 H12        -3.4683    1.0500    0.8671 H         1 <0>         0.1211
     39 H13        -0.9738    0.8269    1.2569 H         1 <0>         0.1184
     40 H14        -0.0003    0.0096   -0.0000 H         1 <0>         0.1625
     41 H15        -4.5941   -1.1614    1.3542 H         1 <0>         0.1217
     42 H16        -3.6174   -1.9434    0.0908 H         1 <0>         0.1444
     43 H17        -1.1171   -2.1669    0.4815 H         1 <0>         0.1176
     44 H18        -0.4488   -1.5318    2.0021 H         1 <0>         0.1624
     45 H19        -2.5825    1.5585   -2.0204 H         1 <0>         0.1105
     46 H20        -0.8412    1.4029   -1.7481 H         1 <0>         0.1015
     47 H21        -2.5025    0.4062    2.8614 H         1 <0>         0.1098
     48 H22        -1.8685   -0.9787    3.7616 H         1 <0>         0.1013
     49 H23        -3.1702    5.2183    1.0775 H         1 <0>         0.4881
     50 H24        -6.5161   -2.4653    4.8313 H         1 <0>         0.4882
     51 H25        -1.9940   -0.4842   -1.2050 H         1 <0>         0.4431
     52 H26        -2.6851   -2.4029    2.1217 H         1 <0>         0.4430
@<TRIPOS>BOND
     1    1    3 ar
     2    1    5 ar
     3    2    4 ar
     4    2    6 ar
     5    3    7 ar
     6    4    8 ar
     7    5   11 ar
     8    6   12 ar
     9    7   15 ar
    10    8   16 ar
    11    9   13 2
    12    9   23 1
    13   10   14 2
    14   10   24 1
    15   11   13 1
    16   11   15 ar
    17   12   14 1
    18   12   16 ar
    19   13   21 1
    20   14   22 1
    21   15   23 1
    22   16   24 1
    23   17   19 1
    24   17   25 1
    25   18   20 1
    26   18   25 1
    27   19   26 1
    28   20   26 1
    29   21   25 1
    30   22   26 1
    31    1   27 1
    32    2   28 1
    33    3   29 1
    34    4   30 1
    35    5   31 1
    36    6   32 1
    37    7   33 1
    38    8   34 1
    39    9   35 1
    40   10   36 1
    41   17   37 1
    42   17   38 1
    43   18   39 1
    44   18   40 1
    45   19   41 1
    46   19   42 1
    47   20   43 1
    48   20   44 1
    49   21   45 1
    50   21   46 1
    51   22   47 1
    52   22   48 1
    53   23   49 1
    54   24   50 1
    55   25   51 1
    56   26   52 1
@<TRIPOS>MOLECULE
ZINC00092235_32
   52    56     0     0     0
SMALL
USER_CHARGES

mmff94s_NoEstat = 56.14
@<TRIPOS>ATOM
      1 C1          3.9409    1.8505   -5.2643 C.ar      1 <0>        -0.0978
      2 C2         -1.1943   -6.0371   -4.8799 C.ar      1 <0>        -0.0984
      3 C3          3.7379    3.2270   -5.3388 C.ar      1 <0>        -0.0943
      4 C4         -1.4363   -7.0820   -3.9903 C.ar      1 <0>        -0.0957
      5 C5          3.5271    1.1252   -4.1410 C.ar      1 <0>        -0.1265
      6 C6         -1.5741   -4.7270   -4.5664 C.ar      1 <0>        -0.1261
      7 C7          3.1167    3.9215   -4.2969 C.ar      1 <0>        -0.1009
      8 C8         -2.0635   -6.8526   -2.7624 C.ar      1 <0>        -0.1004
      9 C9          1.8707    2.5224   -1.1975 C.2       1 <0>         0.0849
     10 C10        -3.2327   -3.6718   -1.4848 C.2       1 <0>         0.0824
     11 C11         2.8986    1.8037   -3.0780 C.ar      1 <0>        -0.0700
     12 C12        -2.2080   -4.4713   -3.3342 C.ar      1 <0>        -0.0695
     13 C13         2.3654    1.4222   -1.8306 C.2       1 <0>        -0.3121
     14 C14        -2.7150   -3.3221   -2.6954 C.2       1 <0>        -0.3108
     15 C15         2.7083    3.1834   -3.1803 C.ar      1 <0>         0.0626
     16 C16        -2.4376   -5.5379   -2.4624 C.ar      1 <0>         0.0622
     17 C17        -0.1424   -0.0915   -1.0817 C.3       1 <0>         0.0793
     18 C18         0.9917   -0.9303   -3.1418 C.3       1 <0>         0.0777
     19 C19        -1.3452   -0.9655   -1.3875 C.3       1 <0>         0.0735
     20 C20        -0.2112   -1.8040   -3.4486 C.3       1 <0>         0.0792
     21 C21         2.3415    0.0283   -1.2761 C.3       1 <0>         0.2470
     22 C22        -2.6944   -1.9286   -3.2510 C.3       1 <0>         0.2493
     23 N1          2.0820    3.5927   -2.0246 N.pl3     1 <0>        -0.5192
     24 N2         -3.0608   -5.0232   -1.3479 N.pl3     1 <0>        -0.5179
     25 N3          1.1000   -0.7329   -1.6495 N.4       1 <0>        -0.7137
     26 N4         -1.4541   -1.1645   -2.8795 N.4       1 <0>        -0.7135
     27 H1          4.4266    1.3324   -6.0866 H         1 <0>         0.1593
     28 H2         -0.7057   -6.2400   -5.8289 H         1 <0>         0.1589
     29 H3          4.0670    3.7709   -6.2204 H         1 <0>         0.1682
     30 H4         -1.1331   -8.0919   -4.2537 H         1 <0>         0.1676
     31 H5          3.6922    0.0524   -4.0979 H         1 <0>         0.1247
     32 H6         -1.3783   -3.9230   -5.2702 H         1 <0>         0.1259
     33 H7          2.9596    4.9933   -4.3562 H         1 <0>         0.1640
     34 H8         -2.2516   -7.6671   -2.0709 H         1 <0>         0.1649
     35 H9          1.3876    2.6567   -0.2395 H         1 <0>         0.1783
     36 H10        -3.7083   -3.0975   -0.7018 H         1 <0>         0.1787
     37 H11        -0.2330    0.9061   -1.5261 H         1 <0>         0.1444
     38 H12         0.0058    0.0018   -0.0008 H         1 <0>         0.1211
     39 H13         1.9168   -1.4131   -3.4726 H         1 <0>         0.1184
     40 H14         0.9112    0.0608   -3.6025 H         1 <0>         0.1625
     41 H15        -1.2640   -1.9562   -0.9260 H         1 <0>         0.1217
     42 H16        -2.2707   -0.4835   -1.0562 H         1 <0>         0.1444
     43 H17        -0.3596   -1.8946   -4.5294 H         1 <0>         0.1176
     44 H18        -0.1203   -2.8031   -3.0074 H         1 <0>         0.1624
     45 H19         3.1916   -0.5578   -1.6415 H         1 <0>         0.1105
     46 H20         2.3879    0.0371   -0.1818 H         1 <0>         0.1015
     47 H21        -2.7422   -1.9378   -4.3452 H         1 <0>         0.1098
     48 H22        -3.5454   -1.3442   -2.8848 H         1 <0>         0.1013
     49 H23         1.8173    4.5459   -1.8178 H         1 <0>         0.4881
     50 H24        -3.3492   -5.5656   -0.5454 H         1 <0>         0.4882
     51 H25         1.2452   -1.6500   -1.1961 H         1 <0>         0.4431
     52 H26        -1.6017   -0.2480   -3.3335 H         1 <0>         0.4430
@<TRIPOS>BOND
     1    1    3 ar
     2    1    5 ar
     3    2    4 ar
     4    2    6 ar
     5    3    7 ar
     6    4    8 ar
     7    5   11 ar
     8    6   12 ar
     9    7   15 ar
    10    8   16 ar
    11    9   13 2
    12    9   23 1
    13   10   14 2
    14   10   24 1
    15   11   13 1
    16   11   15 ar
    17   12   14 1
    18   12   16 ar
    19   13   21 1
    20   14   22 1
    21   15   23 1
    22   16   24 1
    23   17   19 1
    24   17   25 1
    25   18   20 1
    26   18   25 1
    27   19   26 1
    28   20   26 1
    29   21   25 1
    30   22   26 1
    31    1   27 1
    32    2   28 1
    33    3   29 1
    34    4   30 1
    35    5   31 1
    36    6   32 1
    37    7   33 1
    38    8   34 1
    39    9   35 1
    40   10   36 1
    41   17   37 1
    42   17   38 1
    43   18   39 1
    44   18   40 1
    45   19   41 1
    46   19   42 1
    47   20   43 1
    48   20   44 1
    49   21   45 1
    50   21   46 1
    51   22   47 1
    52   22   48 1
    53   23   49 1
    54   24   50 1
    55   25   51 1
    56   26   52 1
@<TRIPOS>MOLECULE
ZINC00092235_33
   52    56     0     0     0
SMALL
USER_CHARGES

mmff94s_NoEstat = 56.17
@<TRIPOS>ATOM
      1 C1          0.8439    4.1378    0.3526 C.ar      1 <0>        -0.0978
      2 C2         -4.2820   -3.7499    0.7422 C.ar      1 <0>        -0.0984
      3 C3          1.0885    5.1829   -0.5360 C.ar      1 <0>        -0.0943
      4 C4         -4.0758   -5.1259    0.8179 C.ar      1 <0>        -0.0957
      5 C5          1.2228    2.8274    0.0391 C.ar      1 <0>        -0.1265
      6 C6         -3.8723   -3.0250   -0.3828 C.ar      1 <0>        -0.1261
      7 C7          1.7177    4.9534   -1.7629 C.ar      1 <0>        -0.1009
      8 C8         -3.4554   -5.8202   -0.2247 C.ar      1 <0>        -0.1004
      9 C9          2.8851    1.7719   -3.0404 C.2       1 <0>         0.0849
     10 C10        -2.2186   -4.4217   -3.3281 C.2       1 <0>         0.0824
     11 C11         1.8586    2.5717   -1.1921 C.ar      1 <0>        -0.0700
     12 C12        -3.2446   -3.7033   -1.4464 C.ar      1 <0>        -0.0695
     13 C13         2.3654    1.4222   -1.8306 C.2       1 <0>        -0.3121
     14 C14        -2.7150   -3.3221   -2.6954 C.2       1 <0>        -0.3108
     15 C15         2.0909    3.6385   -2.0630 C.ar      1 <0>         0.0626
     16 C16        -3.0511   -5.0825   -1.3430 C.ar      1 <0>         0.0622
     17 C17        -0.1424   -0.0915   -1.0817 C.3       1 <0>         0.0793
     18 C18         0.9917   -0.9303   -3.1418 C.3       1 <0>         0.0777
     19 C19        -1.3452   -0.9655   -1.3875 C.3       1 <0>         0.0735
     20 C20        -0.2112   -1.8040   -3.4486 C.3       1 <0>         0.0792
     21 C21         2.3415    0.0283   -1.2761 C.3       1 <0>         0.2470
     22 C22        -2.6944   -1.9286   -3.2510 C.3       1 <0>         0.2493
     23 N1          2.7153    3.1236   -3.1766 N.pl3     1 <0>        -0.5192
     24 N2         -2.4263   -5.4917   -2.4995 N.pl3     1 <0>        -0.5179
     25 N3          1.1000   -0.7329   -1.6495 N.4       1 <0>        -0.7137
     26 N4         -1.4541   -1.1645   -2.8795 N.4       1 <0>        -0.7135
     27 H1          0.3528    4.3406    1.3004 H         1 <0>         0.1593
     28 H2         -4.7660   -3.2318    1.5655 H         1 <0>         0.1589
     29 H3          0.7861    6.1930   -0.2726 H         1 <0>         0.1682
     30 H4         -4.4019   -5.6696    1.7007 H         1 <0>         0.1676
     31 H5          1.0254    2.0234    0.7424 H         1 <0>         0.1247
     32 H6         -4.0403   -1.9527   -0.4270 H         1 <0>         0.1259
     33 H7          1.9072    5.7680   -2.4540 H         1 <0>         0.1640
     34 H8         -3.2952   -6.8915   -0.1642 H         1 <0>         0.1649
     35 H9          3.3606    1.1973   -3.8232 H         1 <0>         0.1783
     36 H10        -1.7365   -4.5559   -4.2866 H         1 <0>         0.1787
     37 H11        -0.2330    0.9061   -1.5261 H         1 <0>         0.1444
     38 H12         0.0058    0.0018   -0.0008 H         1 <0>         0.1211
     39 H13         1.9168   -1.4131   -3.4726 H         1 <0>         0.1184
     40 H14         0.9112    0.0608   -3.6025 H         1 <0>         0.1625
     41 H15        -1.2640   -1.9562   -0.9260 H         1 <0>         0.1217
     42 H16        -2.2707   -0.4835   -1.0562 H         1 <0>         0.1444
     43 H17        -0.3596   -1.8946   -4.5294 H         1 <0>         0.1176
     44 H18        -0.1203   -2.8031   -3.0074 H         1 <0>         0.1624
     45 H19         3.1916   -0.5578   -1.6415 H         1 <0>         0.1105
     46 H20         2.3879    0.0371   -0.1818 H         1 <0>         0.1015
     47 H21        -2.7422   -1.9378   -4.3452 H         1 <0>         0.1098
     48 H22        -3.5454   -1.3442   -2.8848 H         1 <0>         0.1013
     49 H23         3.0058    3.6661   -3.9784 H         1 <0>         0.4881
     50 H24        -2.1599   -6.4445   -2.7059 H         1 <0>         0.4882
     51 H25         1.2452   -1.6500   -1.1961 H         1 <0>         0.4431
     52 H26        -1.6017   -0.2480   -3.3335 H         1 <0>         0.4430
@<TRIPOS>BOND
     1    1    3 ar
     2    1    5 ar
     3    2    4 ar
     4    2    6 ar
     5    3    7 ar
     6    4    8 ar
     7    5   11 ar
     8    6   12 ar
     9    7   15 ar
    10    8   16 ar
    11    9   13 2
    12    9   23 1
    13   10   14 2
    14   10   24 1
    15   11   13 1
    16   11   15 ar
    17   12   14 1
    18   12   16 ar
    19   13   21 1
    20   14   22 1
    21   15   23 1
    22   16   24 1
    23   17   19 1
    24   17   25 1
    25   18   20 1
    26   18   25 1
    27   19   26 1
    28   20   26 1
    29   21   25 1
    30   22   26 1
    31    1   27 1
    32    2   28 1
    33    3   29 1
    34    4   30 1
    35    5   31 1
    36    6   32 1
    37    7   33 1
    38    8   34 1
    39    9   35 1
    40   10   36 1
    41   17   37 1
    42   17   38 1
    43   18   39 1
    44   18   40 1
    45   19   41 1
    46   19   42 1
    47   20   43 1
    48   20   44 1
    49   21   45 1
    50   21   46 1
    51   22   47 1
    52   22   48 1
    53   23   49 1
    54   24   50 1
    55   25   51 1
    56   26   52 1
@<TRIPOS>MOLECULE
ZINC00092235_34
   52    56     0     0     0
SMALL
USER_CHARGES

mmff94s_NoEstat = 56.27
@<TRIPOS>ATOM
      1 C1         -5.2125    4.4258    0.0646 C.ar      1 <0>        -0.0978
      2 C2         -4.3008   -3.6975    6.2471 C.ar      1 <0>        -0.0984
      3 C3         -4.7488    5.4482    0.8901 C.ar      1 <0>        -0.0943
      4 C4         -5.6367   -3.4690    6.5709 C.ar      1 <0>        -0.0957
      5 C5         -4.3371    3.4527   -0.4311 C.ar      1 <0>        -0.1265
      6 C6         -3.6387   -2.8829    5.3213 C.ar      1 <0>        -0.1261
      7 C7         -3.3996    5.5313    1.2460 C.ar      1 <0>        -0.1009
      8 C8         -6.3522   -2.4224    5.9821 C.ar      1 <0>        -0.1004
      9 C9         -0.7476    3.2807    0.2371 C.2       1 <0>         0.0849
     10 C10        -5.1110   -0.0470    3.5464 C.2       1 <0>         0.0824
     11 C11        -2.9724    3.5159   -0.0858 C.ar      1 <0>        -0.0700
     12 C12        -4.3396   -1.8216    4.7148 C.ar      1 <0>        -0.0695
     13 C13        -1.8337    2.7409   -0.3834 C.2       1 <0>        -0.3121
     14 C14        -4.0166   -0.8268    3.7704 C.2       1 <0>        -0.3108
     15 C15        -2.5361    4.5517    0.7430 C.ar      1 <0>         0.0626
     16 C16        -5.6775   -1.6163    5.0585 C.ar      1 <0>         0.0622
     17 C17        -3.4142    0.2187    0.1554 C.3       1 <0>         0.0793
     18 C18        -0.9527   -0.0013    0.5399 C.3       1 <0>         0.0777
     19 C19        -3.6381   -1.1269    0.8216 C.3       1 <0>         0.0735
     20 C20        -1.1775   -1.3469    1.2061 C.3       1 <0>         0.0792
     21 C21        -1.8086    1.5140   -1.2466 C.3       1 <0>         0.2470
     22 C22        -2.6823   -0.6456    3.1086 C.3       1 <0>         0.2493
     23 N1         -1.1815    4.3837    0.9223 N.pl3     1 <0>        -0.5192
     24 N2         -6.1200   -0.5324    4.3341 N.pl3     1 <0>        -0.5179
     25 N3         -2.0428    0.2454   -0.4742 N.4       1 <0>        -0.7137
     26 N4         -2.5509   -1.4196    1.8252 N.4       1 <0>        -0.7135
     27 H1         -6.2657    4.3821   -0.1989 H         1 <0>         0.1593
     28 H2         -3.7653   -4.5176    6.7174 H         1 <0>         0.1589
     29 H3         -5.4457    6.1936    1.2641 H         1 <0>         0.1682
     30 H4         -6.1317   -4.1135    7.2925 H         1 <0>         0.1676
     31 H5         -4.7138    2.6617   -1.0733 H         1 <0>         0.1247
     32 H6         -2.5970   -3.0736    5.0795 H         1 <0>         0.1259
     33 H7         -3.0400    6.3281    1.8884 H         1 <0>         0.1640
     34 H8         -7.3924   -2.2459    6.2349 H         1 <0>         0.1649
     35 H9          0.2946    2.9938    0.2631 H         1 <0>         0.1783
     36 H10        -5.2785    0.8075    2.9053 H         1 <0>         0.1787
     37 H11        -4.1417    0.3801   -0.6468 H         1 <0>         0.1444
     38 H12        -3.4683    1.0500    0.8671 H         1 <0>         0.1211
     39 H13        -0.9738    0.8269    1.2569 H         1 <0>         0.1184
     40 H14        -0.0003    0.0096   -0.0000 H         1 <0>         0.1625
     41 H15        -4.5941   -1.1614    1.3542 H         1 <0>         0.1217
     42 H16        -3.6174   -1.9434    0.0908 H         1 <0>         0.1444
     43 H17        -1.1171   -2.1669    0.4815 H         1 <0>         0.1176
     44 H18        -0.4488   -1.5318    2.0021 H         1 <0>         0.1624
     45 H19        -2.5825    1.5585   -2.0204 H         1 <0>         0.1105
     46 H20        -0.8412    1.4029   -1.7481 H         1 <0>         0.1015
     47 H21        -2.5025    0.4062    2.8614 H         1 <0>         0.1098
     48 H22        -1.8685   -0.9787    3.7616 H         1 <0>         0.1013
     49 H23        -0.5934    4.9881    1.4794 H         1 <0>         0.4881
     50 H24        -7.0550   -0.1512    4.3783 H         1 <0>         0.4882
     51 H25        -1.9940   -0.4842   -1.2050 H         1 <0>         0.4431
     52 H26        -2.6851   -2.4029    2.1217 H         1 <0>         0.4430
@<TRIPOS>BOND
     1    1    3 ar
     2    1    5 ar
     3    2    4 ar
     4    2    6 ar
     5    3    7 ar
     6    4    8 ar
     7    5   11 ar
     8    6   12 ar
     9    7   15 ar
    10    8   16 ar
    11    9   13 2
    12    9   23 1
    13   10   14 2
    14   10   24 1
    15   11   13 1
    16   11   15 ar
    17   12   14 1
    18   12   16 ar
    19   13   21 1
    20   14   22 1
    21   15   23 1
    22   16   24 1
    23   17   19 1
    24   17   25 1
    25   18   20 1
    26   18   25 1
    27   19   26 1
    28   20   26 1
    29   21   25 1
    30   22   26 1
    31    1   27 1
    32    2   28 1
    33    3   29 1
    34    4   30 1
    35    5   31 1
    36    6   32 1
    37    7   33 1
    38    8   34 1
    39    9   35 1
    40   10   36 1
    41   17   37 1
    42   17   38 1
    43   18   39 1
    44   18   40 1
    45   19   41 1
    46   19   42 1
    47   20   43 1
    48   20   44 1
    49   21   45 1
    50   21   46 1
    51   22   47 1
    52   22   48 1
    53   23   49 1
    54   24   50 1
    55   25   51 1
    56   26   52 1
@<TRIPOS>MOLECULE
ZINC00092235_35
   52    56     0     0     0
SMALL
USER_CHARGES

mmff94s_NoEstat = 56.28
@<TRIPOS>ATOM
      1 C1          1.4887    3.8233    1.1152 C.ar      1 <0>        -0.0978
      2 C2         -2.6455   -3.8423    6.5091 C.ar      1 <0>        -0.0984
      3 C3          0.9816    4.9324    1.7894 C.ar      1 <0>        -0.0943
      4 C4         -1.4520   -3.8395    7.2284 C.ar      1 <0>        -0.0957
      5 C5          0.6499    3.0046    0.3504 C.ar      1 <0>        -0.1265
      6 C6         -2.8442   -2.9519    5.4476 C.ar      1 <0>        -0.1261
      7 C7         -0.3760    5.2585    1.7214 C.ar      1 <0>        -0.1009
      8 C8         -0.4216   -2.9498    6.9115 C.ar      1 <0>        -0.1004
      9 C9         -2.9458    3.4774   -0.1062 C.2       1 <0>         0.0849
     10 C10        -0.4351   -0.4647    4.2770 C.2       1 <0>         0.0824
     11 C11        -0.7224    3.3135    0.2670 C.ar      1 <0>        -0.0700
     12 C12        -1.8195   -2.0456    5.1098 C.ar      1 <0>        -0.0695
     13 C13        -1.8337    2.7409   -0.3834 C.2       1 <0>        -0.3121
     14 C14        -1.6635   -1.0370    4.1380 C.2       1 <0>        -0.3108
     15 C15        -1.2026    4.4311    0.9531 C.ar      1 <0>         0.0626
     16 C16        -0.6342   -2.0655    5.8480 C.ar      1 <0>         0.0622
     17 C17        -3.4142    0.2187    0.1554 C.3       1 <0>         0.0793
     18 C18        -0.9527   -0.0013    0.5399 C.3       1 <0>         0.0777
     19 C19        -3.6381   -1.1269    0.8216 C.3       1 <0>         0.0735
     20 C20        -1.1775   -1.3469    1.2061 C.3       1 <0>         0.0792
     21 C21        -1.8086    1.5140   -1.2466 C.3       1 <0>         0.2470
     22 C22        -2.6823   -0.6456    3.1086 C.3       1 <0>         0.2493
     23 N1         -2.5553    4.5062    0.7084 N.pl3     1 <0>        -0.5192
     24 N2          0.1879   -1.0955    5.3203 N.pl3     1 <0>        -0.5179
     25 N3         -2.0428    0.2454   -0.4742 N.4       1 <0>        -0.7137
     26 N4         -2.5509   -1.4196    1.8252 N.4       1 <0>        -0.7135
     27 H1          2.5476    3.5893    1.1835 H         1 <0>         0.1593
     28 H2         -3.4325   -4.5429    6.7743 H         1 <0>         0.1589
     29 H3          1.6506    5.5548    2.3777 H         1 <0>         0.1682
     30 H4         -1.3186   -4.5395    8.0490 H         1 <0>         0.1676
     31 H5          1.0603    2.1436   -0.1695 H         1 <0>         0.1247
     32 H6         -3.7801   -2.9664    4.8962 H         1 <0>         0.1259
     33 H7         -0.7694    6.1221    2.2471 H         1 <0>         0.1640
     34 H8          0.5069   -2.9486    7.4726 H         1 <0>         0.1649
     35 H9         -3.9801    3.3766   -0.4049 H         1 <0>         0.1783
     36 H10         0.0640    0.3300    3.7398 H         1 <0>         0.1787
     37 H11        -4.1417    0.3801   -0.6468 H         1 <0>         0.1444
     38 H12        -3.4683    1.0500    0.8671 H         1 <0>         0.1211
     39 H13        -0.9738    0.8269    1.2569 H         1 <0>         0.1184
     40 H14        -0.0003    0.0096   -0.0000 H         1 <0>         0.1625
     41 H15        -4.5941   -1.1614    1.3542 H         1 <0>         0.1217
     42 H16        -3.6174   -1.9434    0.0908 H         1 <0>         0.1444
     43 H17        -1.1171   -2.1669    0.4815 H         1 <0>         0.1176
     44 H18        -0.4488   -1.5318    2.0021 H         1 <0>         0.1624
     45 H19        -2.5825    1.5585   -2.0204 H         1 <0>         0.1105
     46 H20        -0.8412    1.4029   -1.7481 H         1 <0>         0.1015
     47 H21        -3.7006   -0.8146    3.4750 H         1 <0>         0.1098
     48 H22        -2.5934    0.4144    2.8472 H         1 <0>         0.1013
     49 H23        -3.1702    5.2183    1.0775 H         1 <0>         0.4881
     50 H24         1.1169   -0.8809    5.6557 H         1 <0>         0.4882
     51 H25        -1.9940   -0.4842   -1.2050 H         1 <0>         0.4431
     52 H26        -2.6851   -2.4029    2.1217 H         1 <0>         0.4430
@<TRIPOS>BOND
     1    1    3 ar
     2    1    5 ar
     3    2    4 ar
     4    2    6 ar
     5    3    7 ar
     6    4    8 ar
     7    5   11 ar
     8    6   12 ar
     9    7   15 ar
    10    8   16 ar
    11    9   13 2
    12    9   23 1
    13   10   14 2
    14   10   24 1
    15   11   13 1
    16   11   15 ar
    17   12   14 1
    18   12   16 ar
    19   13   21 1
    20   14   22 1
    21   15   23 1
    22   16   24 1
    23   17   19 1
    24   17   25 1
    25   18   20 1
    26   18   25 1
    27   19   26 1
    28   20   26 1
    29   21   25 1
    30   22   26 1
    31    1   27 1
    32    2   28 1
    33    3   29 1
    34    4   30 1
    35    5   31 1
    36    6   32 1
    37    7   33 1
    38    8   34 1
    39    9   35 1
    40   10   36 1
    41   17   37 1
    42   17   38 1
    43   18   39 1
    44   18   40 1
    45   19   41 1
    46   19   42 1
    47   20   43 1
    48   20   44 1
    49   21   45 1
    50   21   46 1
    51   22   47 1
    52   22   48 1
    53   23   49 1
    54   24   50 1
    55   25   51 1
    56   26   52 1
@<TRIPOS>MOLECULE
ZINC00092235_36
   52    56     0     0     0
SMALL
USER_CHARGES

mmff94s_NoEstat = 56.33
@<TRIPOS>ATOM
      1 C1          1.9091   -2.9315    2.3066 C.ar      1 <0>        -0.0978
      2 C2         -5.1575   -2.3143    0.6946 C.ar      1 <0>        -0.0984
      3 C3          2.1751   -2.3247    3.5325 C.ar      1 <0>        -0.0943
      4 C4         -6.2838   -1.4939    0.7006 C.ar      1 <0>        -0.0957
      5 C5          1.9878   -2.2025    1.1144 C.ar      1 <0>        -0.1265
      6 C6         -4.2930   -2.3363   -0.4059 C.ar      1 <0>        -0.1261
      7 C7          2.5273   -0.9741    3.6068 C.ar      1 <0>        -0.1009
      8 C8         -6.5820   -0.6712   -0.3895 C.ar      1 <0>        -0.1004
      9 C9          2.8669    1.3346    0.8371 C.2       1 <0>         0.0849
     10 C10        -4.6815   -0.3610   -3.4568 C.2       1 <0>         0.0824
     11 C11         2.3409   -0.8393    1.1645 C.ar      1 <0>        -0.0700
     12 C12        -4.5733   -1.5155   -1.5165 C.ar      1 <0>        -0.0695
     13 C13         2.5148    0.1795    0.2065 C.2       1 <0>        -0.3121
     14 C14        -3.9544   -1.2786   -2.7602 C.2       1 <0>        -0.3108
     15 C15         2.6020   -0.2577    2.4070 C.ar      1 <0>         0.0626
     16 C16        -5.7090   -0.7036   -1.4827 C.ar      1 <0>         0.0622
     17 C17        -0.1424   -0.0915   -1.0817 C.3       1 <0>         0.0793
     18 C18         0.9917   -0.9303   -3.1418 C.3       1 <0>         0.0777
     19 C19        -1.3452   -0.9655   -1.3875 C.3       1 <0>         0.0735
     20 C20        -0.2112   -1.8040   -3.4486 C.3       1 <0>         0.0792
     21 C21         2.3415    0.0283   -1.2761 C.3       1 <0>         0.2470
     22 C22        -2.6944   -1.9286   -3.2510 C.3       1 <0>         0.2493
     23 N1          2.9188    1.0623    2.1779 N.pl3     1 <0>        -0.5192
     24 N2         -5.7494   -0.0139   -2.6734 N.pl3     1 <0>        -0.5179
     25 N3          1.1000   -0.7329   -1.6495 N.4       1 <0>        -0.7137
     26 N4         -1.4541   -1.1645   -2.8795 N.4       1 <0>        -0.7135
     27 H1          1.6367   -3.9828    2.2739 H         1 <0>         0.1593
     28 H2         -4.9465   -2.9456    1.5534 H         1 <0>         0.1589
     29 H3          2.1083   -2.9094    4.4462 H         1 <0>         0.1682
     30 H4         -6.9418   -1.4921    1.5656 H         1 <0>         0.1676
     31 H5          1.7777   -2.6897    0.1666 H         1 <0>         0.1247
     32 H6         -3.4189   -2.9811   -0.3954 H         1 <0>         0.1259
     33 H7          2.7338   -0.5029    4.5620 H         1 <0>         0.1640
     34 H8         -7.4595   -0.0333   -0.3836 H         1 <0>         0.1649
     35 H9          3.0871    2.3276    0.4703 H         1 <0>         0.1783
     36 H10        -4.5503    0.0840   -4.4335 H         1 <0>         0.1787
     37 H11        -0.2330    0.9061   -1.5261 H         1 <0>         0.1444
     38 H12         0.0058    0.0018   -0.0008 H         1 <0>         0.1211
     39 H13         1.9168   -1.4131   -3.4726 H         1 <0>         0.1184
     40 H14         0.9112    0.0608   -3.6025 H         1 <0>         0.1625
     41 H15        -1.2640   -1.9562   -0.9260 H         1 <0>         0.1217
     42 H16        -2.2707   -0.4835   -1.0562 H         1 <0>         0.1444
     43 H17        -0.3596   -1.8946   -4.5294 H         1 <0>         0.1176
     44 H18        -0.1203   -2.8031   -3.0074 H         1 <0>         0.1624
     45 H19         2.2719    1.0044   -1.7682 H         1 <0>         0.1105
     46 H20         3.1859   -0.5098   -1.7202 H         1 <0>         0.1015
     47 H21        -2.5802   -2.9353   -2.8349 H         1 <0>         0.1098
     48 H22        -2.6943   -2.0168   -4.3428 H         1 <0>         0.1013
     49 H23         3.1552    1.7325    2.8965 H         1 <0>         0.4881
     50 H24        -6.4647    0.6521   -2.9310 H         1 <0>         0.4882
     51 H25         1.2452   -1.6500   -1.1961 H         1 <0>         0.4431
     52 H26        -1.6017   -0.2480   -3.3335 H         1 <0>         0.4430
@<TRIPOS>BOND
     1    1    3 ar
     2    1    5 ar
     3    2    4 ar
     4    2    6 ar
     5    3    7 ar
     6    4    8 ar
     7    5   11 ar
     8    6   12 ar
     9    7   15 ar
    10    8   16 ar
    11    9   13 2
    12    9   23 1
    13   10   14 2
    14   10   24 1
    15   11   13 1
    16   11   15 ar
    17   12   14 1
    18   12   16 ar
    19   13   21 1
    20   14   22 1
    21   15   23 1
    22   16   24 1
    23   17   19 1
    24   17   25 1
    25   18   20 1
    26   18   25 1
    27   19   26 1
    28   20   26 1
    29   21   25 1
    30   22   26 1
    31    1   27 1
    32    2   28 1
    33    3   29 1
    34    4   30 1
    35    5   31 1
    36    6   32 1
    37    7   33 1
    38    8   34 1
    39    9   35 1
    40   10   36 1
    41   17   37 1
    42   17   38 1
    43   18   39 1
    44   18   40 1
    45   19   41 1
    46   19   42 1
    47   20   43 1
    48   20   44 1
    49   21   45 1
    50   21   46 1
    51   22   47 1
    52   22   48 1
    53   23   49 1
    54   24   50 1
    55   25   51 1
    56   26   52 1
@<TRIPOS>MOLECULE
ZINC00092235_37
   52    56     0     0     0
SMALL
USER_CHARGES

mmff94s_NoEstat = 56.41
@<TRIPOS>ATOM
      1 C1         -5.2125    4.4258    0.0646 C.ar      1 <0>        -0.0978
      2 C2         -2.6455   -3.8423    6.5091 C.ar      1 <0>        -0.0984
      3 C3         -4.7488    5.4482    0.8901 C.ar      1 <0>        -0.0943
      4 C4         -1.4520   -3.8395    7.2284 C.ar      1 <0>        -0.0957
      5 C5         -4.3371    3.4527   -0.4311 C.ar      1 <0>        -0.1265
      6 C6         -2.8442   -2.9519    5.4476 C.ar      1 <0>        -0.1261
      7 C7         -3.3996    5.5313    1.2460 C.ar      1 <0>        -0.1009
      8 C8         -0.4216   -2.9498    6.9115 C.ar      1 <0>        -0.1004
      9 C9         -0.7476    3.2807    0.2371 C.2       1 <0>         0.0849
     10 C10        -0.4351   -0.4647    4.2770 C.2       1 <0>         0.0824
     11 C11        -2.9724    3.5159   -0.0858 C.ar      1 <0>        -0.0700
     12 C12        -1.8195   -2.0456    5.1098 C.ar      1 <0>        -0.0695
     13 C13        -1.8337    2.7409   -0.3834 C.2       1 <0>        -0.3121
     14 C14        -1.6635   -1.0370    4.1380 C.2       1 <0>        -0.3108
     15 C15        -2.5361    4.5517    0.7430 C.ar      1 <0>         0.0626
     16 C16        -0.6342   -2.0655    5.8480 C.ar      1 <0>         0.0622
     17 C17        -3.4142    0.2187    0.1554 C.3       1 <0>         0.0793
     18 C18        -0.9527   -0.0013    0.5399 C.3       1 <0>         0.0777
     19 C19        -3.6381   -1.1269    0.8216 C.3       1 <0>         0.0735
     20 C20        -1.1775   -1.3469    1.2061 C.3       1 <0>         0.0792
     21 C21        -1.8086    1.5140   -1.2466 C.3       1 <0>         0.2470
     22 C22        -2.6823   -0.6456    3.1086 C.3       1 <0>         0.2493
     23 N1         -1.1815    4.3837    0.9223 N.pl3     1 <0>        -0.5192
     24 N2          0.1879   -1.0955    5.3203 N.pl3     1 <0>        -0.5179
     25 N3         -2.0428    0.2454   -0.4742 N.4       1 <0>        -0.7137
     26 N4         -2.5509   -1.4196    1.8252 N.4       1 <0>        -0.7135
     27 H1         -6.2657    4.3821   -0.1989 H         1 <0>         0.1593
     28 H2         -3.4325   -4.5429    6.7743 H         1 <0>         0.1589
     29 H3         -5.4457    6.1936    1.2641 H         1 <0>         0.1682
     30 H4         -1.3186   -4.5395    8.0490 H         1 <0>         0.1676
     31 H5         -4.7138    2.6617   -1.0733 H         1 <0>         0.1247
     32 H6         -3.7801   -2.9664    4.8962 H         1 <0>         0.1259
     33 H7         -3.0400    6.3281    1.8884 H         1 <0>         0.1640
     34 H8          0.5069   -2.9486    7.4726 H         1 <0>         0.1649
     35 H9          0.2946    2.9938    0.2631 H         1 <0>         0.1783
     36 H10         0.0640    0.3300    3.7398 H         1 <0>         0.1787
     37 H11        -4.1417    0.3801   -0.6468 H         1 <0>         0.1444
     38 H12        -3.4683    1.0500    0.8671 H         1 <0>         0.1211
     39 H13        -0.9738    0.8269    1.2569 H         1 <0>         0.1184
     40 H14        -0.0003    0.0096   -0.0000 H         1 <0>         0.1625
     41 H15        -4.5941   -1.1614    1.3542 H         1 <0>         0.1217
     42 H16        -3.6174   -1.9434    0.0908 H         1 <0>         0.1444
     43 H17        -1.1171   -2.1669    0.4815 H         1 <0>         0.1176
     44 H18        -0.4488   -1.5318    2.0021 H         1 <0>         0.1624
     45 H19        -2.5825    1.5585   -2.0204 H         1 <0>         0.1105
     46 H20        -0.8412    1.4029   -1.7481 H         1 <0>         0.1015
     47 H21        -3.7006   -0.8146    3.4750 H         1 <0>         0.1098
     48 H22        -2.5934    0.4144    2.8472 H         1 <0>         0.1013
     49 H23        -0.5934    4.9881    1.4794 H         1 <0>         0.4881
     50 H24         1.1169   -0.8809    5.6557 H         1 <0>         0.4882
     51 H25        -1.9940   -0.4842   -1.2050 H         1 <0>         0.4431
     52 H26        -2.6851   -2.4029    2.1217 H         1 <0>         0.4430
@<TRIPOS>BOND
     1    1    3 ar
     2    1    5 ar
     3    2    4 ar
     4    2    6 ar
     5    3    7 ar
     6    4    8 ar
     7    5   11 ar
     8    6   12 ar
     9    7   15 ar
    10    8   16 ar
    11    9   13 2
    12    9   23 1
    13   10   14 2
    14   10   24 1
    15   11   13 1
    16   11   15 ar
    17   12   14 1
    18   12   16 ar
    19   13   21 1
    20   14   22 1
    21   15   23 1
    22   16   24 1
    23   17   19 1
    24   17   25 1
    25   18   20 1
    26   18   25 1
    27   19   26 1
    28   20   26 1
    29   21   25 1
    30   22   26 1
    31    1   27 1
    32    2   28 1
    33    3   29 1
    34    4   30 1
    35    5   31 1
    36    6   32 1
    37    7   33 1
    38    8   34 1
    39    9   35 1
    40   10   36 1
    41   17   37 1
    42   17   38 1
    43   18   39 1
    44   18   40 1
    45   19   41 1
    46   19   42 1
    47   20   43 1
    48   20   44 1
    49   21   45 1
    50   21   46 1
    51   22   47 1
    52   22   48 1
    53   23   49 1
    54   24   50 1
    55   25   51 1
    56   26   52 1
@<TRIPOS>MOLECULE
ZINC00092235_38
   52    56     0     0     0
SMALL
USER_CHARGES

mmff94s_NoEstat = 56.42
@<TRIPOS>ATOM
      1 C1          1.4887    3.8233    1.1152 C.ar      1 <0>        -0.0978
      2 C2         -4.3008   -3.6975    6.2471 C.ar      1 <0>        -0.0984
      3 C3          0.9816    4.9324    1.7894 C.ar      1 <0>        -0.0943
      4 C4         -5.6367   -3.4690    6.5709 C.ar      1 <0>        -0.0957
      5 C5          0.6499    3.0046    0.3504 C.ar      1 <0>        -0.1265
      6 C6         -3.6387   -2.8829    5.3213 C.ar      1 <0>        -0.1261
      7 C7         -0.3760    5.2585    1.7214 C.ar      1 <0>        -0.1009
      8 C8         -6.3522   -2.4224    5.9821 C.ar      1 <0>        -0.1004
      9 C9         -2.9458    3.4774   -0.1062 C.2       1 <0>         0.0849
     10 C10        -5.1110   -0.0470    3.5464 C.2       1 <0>         0.0824
     11 C11        -0.7224    3.3135    0.2670 C.ar      1 <0>        -0.0700
     12 C12        -4.3396   -1.8216    4.7148 C.ar      1 <0>        -0.0695
     13 C13        -1.8337    2.7409   -0.3834 C.2       1 <0>        -0.3121
     14 C14        -4.0166   -0.8268    3.7704 C.2       1 <0>        -0.3108
     15 C15        -1.2026    4.4311    0.9531 C.ar      1 <0>         0.0626
     16 C16        -5.6775   -1.6163    5.0585 C.ar      1 <0>         0.0622
     17 C17        -3.4142    0.2187    0.1554 C.3       1 <0>         0.0793
     18 C18        -0.9527   -0.0013    0.5399 C.3       1 <0>         0.0777
     19 C19        -3.6381   -1.1269    0.8216 C.3       1 <0>         0.0735
     20 C20        -1.1775   -1.3469    1.2061 C.3       1 <0>         0.0792
     21 C21        -1.8086    1.5140   -1.2466 C.3       1 <0>         0.2470
     22 C22        -2.6823   -0.6456    3.1086 C.3       1 <0>         0.2493
     23 N1         -2.5553    4.5062    0.7084 N.pl3     1 <0>        -0.5192
     24 N2         -6.1200   -0.5324    4.3341 N.pl3     1 <0>        -0.5179
     25 N3         -2.0428    0.2454   -0.4742 N.4       1 <0>        -0.7137
     26 N4         -2.5509   -1.4196    1.8252 N.4       1 <0>        -0.7135
     27 H1          2.5476    3.5893    1.1835 H         1 <0>         0.1593
     28 H2         -3.7653   -4.5176    6.7174 H         1 <0>         0.1589
     29 H3          1.6506    5.5548    2.3777 H         1 <0>         0.1682
     30 H4         -6.1317   -4.1135    7.2925 H         1 <0>         0.1676
     31 H5          1.0603    2.1436   -0.1695 H         1 <0>         0.1247
     32 H6         -2.5970   -3.0736    5.0795 H         1 <0>         0.1259
     33 H7         -0.7694    6.1221    2.2471 H         1 <0>         0.1640
     34 H8         -7.3924   -2.2459    6.2349 H         1 <0>         0.1649
     35 H9         -3.9801    3.3766   -0.4049 H         1 <0>         0.1783
     36 H10        -5.2785    0.8075    2.9053 H         1 <0>         0.1787
     37 H11        -4.1417    0.3801   -0.6468 H         1 <0>         0.1444
     38 H12        -3.4683    1.0500    0.8671 H         1 <0>         0.1211
     39 H13        -0.9738    0.8269    1.2569 H         1 <0>         0.1184
     40 H14        -0.0003    0.0096   -0.0000 H         1 <0>         0.1625
     41 H15        -4.5941   -1.1614    1.3542 H         1 <0>         0.1217
     42 H16        -3.6174   -1.9434    0.0908 H         1 <0>         0.1444
     43 H17        -1.1171   -2.1669    0.4815 H         1 <0>         0.1176
     44 H18        -0.4488   -1.5318    2.0021 H         1 <0>         0.1624
     45 H19        -2.5825    1.5585   -2.0204 H         1 <0>         0.1105
     46 H20        -0.8412    1.4029   -1.7481 H         1 <0>         0.1015
     47 H21        -2.5025    0.4062    2.8614 H         1 <0>         0.1098
     48 H22        -1.8685   -0.9787    3.7616 H         1 <0>         0.1013
     49 H23        -3.1702    5.2183    1.0775 H         1 <0>         0.4881
     50 H24        -7.0550   -0.1512    4.3783 H         1 <0>         0.4882
     51 H25        -1.9940   -0.4842   -1.2050 H         1 <0>         0.4431
     52 H26        -2.6851   -2.4029    2.1217 H         1 <0>         0.4430
@<TRIPOS>BOND
     1    1    3 ar
     2    1    5 ar
     3    2    4 ar
     4    2    6 ar
     5    3    7 ar
     6    4    8 ar
     7    5   11 ar
     8    6   12 ar
     9    7   15 ar
    10    8   16 ar
    11    9   13 2
    12    9   23 1
    13   10   14 2
    14   10   24 1
    15   11   13 1
    16   11   15 ar
    17   12   14 1
    18   12   16 ar
    19   13   21 1
    20   14   22 1
    21   15   23 1
    22   16   24 1
    23   17   19 1
    24   17   25 1
    25   18   20 1
    26   18   25 1
    27   19   26 1
    28   20   26 1
    29   21   25 1
    30   22   26 1
    31    1   27 1
    32    2   28 1
    33    3   29 1
    34    4   30 1
    35    5   31 1
    36    6   32 1
    37    7   33 1
    38    8   34 1
    39    9   35 1
    40   10   36 1
    41   17   37 1
    42   17   38 1
    43   18   39 1
    44   18   40 1
    45   19   41 1
    46   19   42 1
    47   20   43 1
    48   20   44 1
    49   21   45 1
    50   21   46 1
    51   22   47 1
    52   22   48 1
    53   23   49 1
    54   24   50 1
    55   25   51 1
    56   26   52 1
@<TRIPOS>MOLECULE
ZINC00092235_39
   52    56     0     0     0
SMALL
USER_CHARGES

mmff94s_NoEstat = 57.69
@<TRIPOS>ATOM
      1 C1          0.5047   -1.6219   -3.8153 C.ar      1 <0>        -0.0978
      2 C2         -2.6455   -3.8423    6.5091 C.ar      1 <0>        -0.0984
      3 C3          1.7308   -1.1382   -4.2675 C.ar      1 <0>        -0.0943
      4 C4         -1.4520   -3.8395    7.2284 C.ar      1 <0>        -0.0957
      5 C5         -0.3338   -0.8242   -3.0281 C.ar      1 <0>        -0.1265
      6 C6         -2.8442   -2.9519    5.4476 C.ar      1 <0>        -0.1261
      7 C7          2.1576    0.1542   -3.9489 C.ar      1 <0>        -0.1009
      8 C8         -0.4216   -2.9498    6.9115 C.ar      1 <0>        -0.1004
      9 C9          0.3747    2.5982   -1.9578 C.2       1 <0>         0.0849
     10 C10        -0.4351   -0.4647    4.2770 C.2       1 <0>         0.0824
     11 C11         0.0753    0.4821   -2.6940 C.ar      1 <0>        -0.0700
     12 C12        -1.8195   -2.0456    5.1098 C.ar      1 <0>        -0.0695
     13 C13        -0.4823    1.5392   -1.9474 C.2       1 <0>        -0.3121
     14 C14        -1.6635   -1.0370    4.1380 C.2       1 <0>        -0.3108
     15 C15         1.3091    0.9402   -3.1612 C.ar      1 <0>         0.0626
     16 C16        -0.6342   -2.0655    5.8480 C.ar      1 <0>         0.0622
     17 C17        -3.4142    0.2187    0.1554 C.3       1 <0>         0.0793
     18 C18        -0.9527   -0.0013    0.5399 C.3       1 <0>         0.0777
     19 C19        -3.6381   -1.1269    0.8216 C.3       1 <0>         0.0735
     20 C20        -1.1775   -1.3469    1.2061 C.3       1 <0>         0.0792
     21 C21        -1.8086    1.5140   -1.2466 C.3       1 <0>         0.2470
     22 C22        -2.6823   -0.6456    3.1086 C.3       1 <0>         0.2493
     23 N1          1.4645    2.2277   -2.6991 N.pl3     1 <0>        -0.5192
     24 N2          0.1879   -1.0955    5.3203 N.pl3     1 <0>        -0.5179
     25 N3         -2.0428    0.2454   -0.4742 N.4       1 <0>        -0.7137
     26 N4         -2.5509   -1.4196    1.8252 N.4       1 <0>        -0.7135
     27 H1          0.1944   -2.6302   -4.0754 H         1 <0>         0.1593
     28 H2         -3.4325   -4.5429    6.7743 H         1 <0>         0.1589
     29 H3          2.3664   -1.7743   -4.8778 H         1 <0>         0.1682
     30 H4         -1.3186   -4.5395    8.0490 H         1 <0>         0.1676
     31 H5         -1.2867   -1.2155   -2.6834 H         1 <0>         0.1247
     32 H6         -3.7801   -2.9664    4.8962 H         1 <0>         0.1259
     33 H7          3.1126    0.5293   -4.3014 H         1 <0>         0.1640
     34 H8          0.5069   -2.9486    7.4726 H         1 <0>         0.1649
     35 H9          0.3231    3.5823   -1.5127 H         1 <0>         0.1783
     36 H10         0.0640    0.3300    3.7398 H         1 <0>         0.1787
     37 H11        -4.1417    0.3801   -0.6468 H         1 <0>         0.1444
     38 H12        -3.4683    1.0500    0.8671 H         1 <0>         0.1211
     39 H13        -0.9738    0.8269    1.2569 H         1 <0>         0.1184
     40 H14        -0.0003    0.0096   -0.0000 H         1 <0>         0.1625
     41 H15        -4.5941   -1.1614    1.3542 H         1 <0>         0.1217
     42 H16        -3.6174   -1.9434    0.0908 H         1 <0>         0.1444
     43 H17        -1.1171   -2.1669    0.4815 H         1 <0>         0.1176
     44 H18        -0.4488   -1.5318    2.0021 H         1 <0>         0.1624
     45 H19        -1.8939    2.3385   -0.5306 H         1 <0>         0.1105
     46 H20        -2.6347    1.6049   -1.9601 H         1 <0>         0.1015
     47 H21        -3.7006   -0.8146    3.4750 H         1 <0>         0.1098
     48 H22        -2.5934    0.4144    2.8472 H         1 <0>         0.1013
     49 H23         2.2676    2.8136   -2.8813 H         1 <0>         0.4881
     50 H24         1.1169   -0.8809    5.6557 H         1 <0>         0.4882
     51 H25        -1.9940   -0.4842   -1.2050 H         1 <0>         0.4431
     52 H26        -2.6851   -2.4029    2.1217 H         1 <0>         0.4430
@<TRIPOS>BOND
     1    1    3 ar
     2    1    5 ar
     3    2    4 ar
     4    2    6 ar
     5    3    7 ar
     6    4    8 ar
     7    5   11 ar
     8    6   12 ar
     9    7   15 ar
    10    8   16 ar
    11    9   13 2
    12    9   23 1
    13   10   14 2
    14   10   24 1
    15   11   13 1
    16   11   15 ar
    17   12   14 1
    18   12   16 ar
    19   13   21 1
    20   14   22 1
    21   15   23 1
    22   16   24 1
    23   17   19 1
    24   17   25 1
    25   18   20 1
    26   18   25 1
    27   19   26 1
    28   20   26 1
    29   21   25 1
    30   22   26 1
    31    1   27 1
    32    2   28 1
    33    3   29 1
    34    4   30 1
    35    5   31 1
    36    6   32 1
    37    7   33 1
    38    8   34 1
    39    9   35 1
    40   10   36 1
    41   17   37 1
    42   17   38 1
    43   18   39 1
    44   18   40 1
    45   19   41 1
    46   19   42 1
    47   20   43 1
    48   20   44 1
    49   21   45 1
    50   21   46 1
    51   22   47 1
    52   22   48 1
    53   23   49 1
    54   24   50 1
    55   25   51 1
    56   26   52 1
@<TRIPOS>MOLECULE
ZINC00092235_40
   52    56     0     0     0
SMALL
USER_CHARGES

mmff94s_NoEstat = 58.00
@<TRIPOS>ATOM
      1 C1          3.8714   -4.3810   -1.2505 C.ar      1 <0>        -0.0978
      2 C2         -2.2762    1.0304   -6.8362 C.ar      1 <0>        -0.0984
      3 C3          5.1318   -4.5097   -1.8306 C.ar      1 <0>        -0.0943
      4 C4         -2.5425    0.4221   -8.0613 C.ar      1 <0>        -0.0957
      5 C5          3.2458   -3.1318   -1.1662 C.ar      1 <0>        -0.1265
      6 C6         -2.3505    0.3017   -5.6435 C.ar      1 <0>        -0.1261
      7 C7          5.8061   -3.3980   -2.3437 C.ar      1 <0>        -0.1009
      8 C8         -2.8907   -0.9297   -8.1343 C.ar      1 <0>        -0.1004
      9 C9          4.6327    0.0282   -2.3710 C.2       1 <0>         0.0849
     10 C10        -3.2192   -3.2376   -5.3627 C.2       1 <0>         0.0824
     11 C11         3.9063   -1.9966   -1.6766 C.ar      1 <0>        -0.0700
     12 C12        -2.6996   -1.0625   -5.6922 C.ar      1 <0>        -0.0695
     13 C13         3.6006   -0.6238   -1.7663 C.2       1 <0>        -0.3121
     14 C14        -2.8688   -2.0813   -4.7333 C.2       1 <0>        -0.3108
     15 C15         5.1686   -2.1556   -2.2525 C.ar      1 <0>         0.0626
     16 C16        -2.9611   -1.6456   -6.9339 C.ar      1 <0>         0.0622
     17 C17         0.9917   -0.9303   -3.1418 C.3       1 <0>         0.0793
     18 C18        -0.1424   -0.0915   -1.0817 C.3       1 <0>         0.0777
     19 C19        -0.2112   -1.8040   -3.4486 C.3       1 <0>         0.0735
     20 C20        -1.3452   -0.9655   -1.3875 C.3       1 <0>         0.0792
     21 C21         2.3415    0.0283   -1.2761 C.3       1 <0>         0.2470
     22 C22        -2.6944   -1.9286   -3.2510 C.3       1 <0>         0.2493
     23 N1          5.5853   -0.9101   -2.6653 N.pl3     1 <0>        -0.5192
     24 N2         -3.2737   -2.9663   -6.7036 N.pl3     1 <0>        -0.5179
     25 N3          1.1000   -0.7329   -1.6495 N.4       1 <0>        -0.7137
     26 N4         -1.4541   -1.1645   -2.8795 N.4       1 <0>        -0.7135
     27 H1          3.3669   -5.2596   -0.8579 H         1 <0>         0.1593
     28 H2         -2.0080    2.0828   -6.8044 H         1 <0>         0.1589
     29 H3          5.5995   -5.4893   -1.8859 H         1 <0>         0.1682
     30 H4         -2.4789    1.0064   -8.9755 H         1 <0>         0.1676
     31 H5          2.2630   -3.0477   -0.7113 H         1 <0>         0.1247
     32 H6         -2.1398    0.7900   -4.6963 H         1 <0>         0.1259
     33 H7          6.7875   -3.4997   -2.7947 H         1 <0>         0.1640
     34 H8         -3.0981   -1.4017   -9.0888 H         1 <0>         0.1649
     35 H9          4.7901    1.0676   -2.6242 H         1 <0>         0.1783
     36 H10        -3.4368   -4.2309   -4.9949 H         1 <0>         0.1787
     37 H11         1.9168   -1.4131   -3.4726 H         1 <0>         0.1444
     38 H12         0.9112    0.0608   -3.6025 H         1 <0>         0.1211
     39 H13        -0.2330    0.9061   -1.5261 H         1 <0>         0.1184
     40 H14         0.0058    0.0018   -0.0008 H         1 <0>         0.1625
     41 H15        -0.3596   -1.8946   -4.5294 H         1 <0>         0.1217
     42 H16        -0.1203   -2.8031   -3.0074 H         1 <0>         0.1444
     43 H17        -1.2640   -1.9562   -0.9260 H         1 <0>         0.1176
     44 H18        -2.2707   -0.4835   -1.0562 H         1 <0>         0.1624
     45 H19         2.3402    0.1161   -0.1844 H         1 <0>         0.1105
     46 H20         2.2300    1.0355   -1.6920 H         1 <0>         0.1015
     47 H21        -3.5394   -1.3921   -2.8061 H         1 <0>         0.1098
     48 H22        -2.6221   -2.9043   -2.7587 H         1 <0>         0.1013
     49 H23         6.4672   -0.7175   -3.1198 H         1 <0>         0.4881
     50 H24        -3.5093   -3.6377   -7.4214 H         1 <0>         0.4882
     51 H25         1.2452   -1.6500   -1.1961 H         1 <0>         0.4431
     52 H26        -1.6017   -0.2480   -3.3335 H         1 <0>         0.4430
@<TRIPOS>BOND
     1    1    3 ar
     2    1    5 ar
     3    2    4 ar
     4    2    6 ar
     5    3    7 ar
     6    4    8 ar
     7    5   11 ar
     8    6   12 ar
     9    7   15 ar
    10    8   16 ar
    11    9   13 2
    12    9   23 1
    13   10   14 2
    14   10   24 1
    15   11   13 1
    16   11   15 ar
    17   12   14 1
    18   12   16 ar
    19   13   21 1
    20   14   22 1
    21   15   23 1
    22   16   24 1
    23   17   19 1
    24   17   25 1
    25   18   20 1
    26   18   25 1
    27   19   26 1
    28   20   26 1
    29   21   25 1
    30   22   26 1
    31    1   27 1
    32    2   28 1
    33    3   29 1
    34    4   30 1
    35    5   31 1
    36    6   32 1
    37    7   33 1
    38    8   34 1
    39    9   35 1
    40   10   36 1
    41   17   37 1
    42   17   38 1
    43   18   39 1
    44   18   40 1
    45   19   41 1
    46   19   42 1
    47   20   43 1
    48   20   44 1
    49   21   45 1
    50   21   46 1
    51   22   47 1
    52   22   48 1
    53   23   49 1
    54   24   50 1
    55   25   51 1
    56   26   52 1
@<TRIPOS>MOLECULE
ZINC00092235_41
   52    56     0     0     0
SMALL
USER_CHARGES

mmff94s_NoEstat = 58.04
@<TRIPOS>ATOM
      1 C1          1.9091   -2.9315    2.3066 C.ar      1 <0>        -0.0978
      2 C2         -4.2313    2.4784   -3.2745 C.ar      1 <0>        -0.0984
      3 C3          2.1751   -2.3247    3.5325 C.ar      1 <0>        -0.0943
      4 C4         -5.4912    2.6051   -2.6930 C.ar      1 <0>        -0.0957
      5 C5          1.9878   -2.2025    1.1144 C.ar      1 <0>        -0.1265
      6 C6         -3.6040    1.2301   -3.3600 C.ar      1 <0>        -0.1261
      7 C7          2.5273   -0.9741    3.6068 C.ar      1 <0>        -0.1009
      8 C8         -6.1633    1.4922   -2.1795 C.ar      1 <0>        -0.1004
      9 C9          2.8669    1.3346    0.8371 C.2       1 <0>         0.0849
     10 C10        -4.9846   -1.9322   -2.1539 C.2       1 <0>         0.0824
     11 C11         2.3409   -0.8393    1.1645 C.ar      1 <0>        -0.0700
     12 C12        -4.2622    0.0938   -2.8491 C.ar      1 <0>        -0.0695
     13 C13         2.5148    0.1795    0.2065 C.2       1 <0>        -0.3121
     14 C14        -3.9544   -1.2786   -2.7602 C.2       1 <0>        -0.3108
     15 C15         2.6020   -0.2577    2.4070 C.ar      1 <0>         0.0626
     16 C16        -5.5241    0.2507   -2.2718 C.ar      1 <0>         0.0622
     17 C17         0.9917   -0.9303   -3.1418 C.3       1 <0>         0.0793
     18 C18        -0.1424   -0.0915   -1.0817 C.3       1 <0>         0.0777
     19 C19        -0.2112   -1.8040   -3.4486 C.3       1 <0>         0.0735
     20 C20        -1.3452   -0.9655   -1.3875 C.3       1 <0>         0.0792
     21 C21         2.3415    0.0283   -1.2761 C.3       1 <0>         0.2470
     22 C22        -2.6944   -1.9286   -3.2510 C.3       1 <0>         0.2493
     23 N1          2.9188    1.0623    2.1779 N.pl3     1 <0>        -0.5192
     24 N2         -5.9384   -0.9955   -1.8588 N.pl3     1 <0>        -0.5179
     25 N3          1.1000   -0.7329   -1.6495 N.4       1 <0>        -0.7137
     26 N4         -1.4541   -1.1645   -2.8795 N.4       1 <0>        -0.7135
     27 H1          1.6367   -3.9828    2.2739 H         1 <0>         0.1593
     28 H2         -3.7280    3.3580   -3.6663 H         1 <0>         0.1589
     29 H3          2.1083   -2.9094    4.4462 H         1 <0>         0.1682
     30 H4         -5.9603    3.5839   -2.6370 H         1 <0>         0.1676
     31 H5          1.7777   -2.6897    0.1666 H         1 <0>         0.1247
     32 H6         -2.6218    1.1475   -3.8164 H         1 <0>         0.1259
     33 H7          2.7338   -0.5029    4.5620 H         1 <0>         0.1640
     34 H8         -7.1441    1.5924   -1.7267 H         1 <0>         0.1649
     35 H9          3.0871    2.3276    0.4703 H         1 <0>         0.1783
     36 H10        -5.1397   -2.9717   -1.9001 H         1 <0>         0.1787
     37 H11         1.9168   -1.4131   -3.4726 H         1 <0>         0.1444
     38 H12         0.9112    0.0608   -3.6025 H         1 <0>         0.1211
     39 H13        -0.2330    0.9061   -1.5261 H         1 <0>         0.1184
     40 H14         0.0058    0.0018   -0.0008 H         1 <0>         0.1625
     41 H15        -0.3596   -1.8946   -4.5294 H         1 <0>         0.1217
     42 H16        -0.1203   -2.8031   -3.0074 H         1 <0>         0.1444
     43 H17        -1.2640   -1.9562   -0.9260 H         1 <0>         0.1176
     44 H18        -2.2707   -0.4835   -1.0562 H         1 <0>         0.1624
     45 H19         2.2719    1.0044   -1.7682 H         1 <0>         0.1105
     46 H20         3.1859   -0.5098   -1.7202 H         1 <0>         0.1015
     47 H21        -2.5802   -2.9353   -2.8349 H         1 <0>         0.1098
     48 H22        -2.6943   -2.0168   -4.3428 H         1 <0>         0.1013
     49 H23         3.1552    1.7325    2.8965 H         1 <0>         0.4881
     50 H24        -6.8196   -1.1895   -1.4034 H         1 <0>         0.4882
     51 H25         1.2452   -1.6500   -1.1961 H         1 <0>         0.4431
     52 H26        -1.6017   -0.2480   -3.3335 H         1 <0>         0.4430
@<TRIPOS>BOND
     1    1    3 ar
     2    1    5 ar
     3    2    4 ar
     4    2    6 ar
     5    3    7 ar
     6    4    8 ar
     7    5   11 ar
     8    6   12 ar
     9    7   15 ar
    10    8   16 ar
    11    9   13 2
    12    9   23 1
    13   10   14 2
    14   10   24 1
    15   11   13 1
    16   11   15 ar
    17   12   14 1
    18   12   16 ar
    19   13   21 1
    20   14   22 1
    21   15   23 1
    22   16   24 1
    23   17   19 1
    24   17   25 1
    25   18   20 1
    26   18   25 1
    27   19   26 1
    28   20   26 1
    29   21   25 1
    30   22   26 1
    31    1   27 1
    32    2   28 1
    33    3   29 1
    34    4   30 1
    35    5   31 1
    36    6   32 1
    37    7   33 1
    38    8   34 1
    39    9   35 1
    40   10   36 1
    41   17   37 1
    42   17   38 1
    43   18   39 1
    44   18   40 1
    45   19   41 1
    46   19   42 1
    47   20   43 1
    48   20   44 1
    49   21   45 1
    50   21   46 1
    51   22   47 1
    52   22   48 1
    53   23   49 1
    54   24   50 1
    55   25   51 1
    56   26   52 1
@<TRIPOS>MOLECULE
ZINC00092235_42
   52    56     0     0     0
SMALL
USER_CHARGES

mmff94s_NoEstat = 58.17
@<TRIPOS>ATOM
      1 C1          2.4394    2.9813    0.0121 C.ar      1 <0>        -0.0978
      2 C2         -1.0977   -4.7648    4.6265 C.ar      1 <0>        -0.0984
      3 C3          3.3849    2.7989   -0.9951 C.ar      1 <0>        -0.0943
      4 C4         -0.1286   -4.6288    5.6185 C.ar      1 <0>        -0.0957
      5 C5          1.1062    2.6010   -0.1795 C.ar      1 <0>        -0.1265
      6 C6         -1.6923   -3.6383    4.0466 C.ar      1 <0>        -0.1261
      7 C7          3.0301    2.2324   -2.2227 C.ar      1 <0>        -0.1009
      8 C8          0.2767   -3.3667    6.0620 C.ar      1 <0>        -0.1004
      9 C9         -0.2604    1.0894   -3.2140 C.2       1 <0>         0.0849
     10 C10        -0.9430   -0.1626    4.8946 C.2       1 <0>         0.0824
     11 C11         0.7249    2.0278   -1.4090 C.ar      1 <0>        -0.0700
     12 C12        -1.2998   -2.3554    4.4776 C.ar      1 <0>        -0.0695
     13 C13        -0.4823    1.5392   -1.9474 C.2       1 <0>        -0.3121
     14 C14        -1.6635   -1.0370    4.1380 C.2       1 <0>        -0.3108
     15 C15         1.6937    1.8571   -2.4002 C.ar      1 <0>         0.0626
     16 C16        -0.3264   -2.2495    5.4734 C.ar      1 <0>         0.0622
     17 C17        -3.4142    0.2187    0.1554 C.3       1 <0>         0.0793
     18 C18        -0.9527   -0.0013    0.5399 C.3       1 <0>         0.0777
     19 C19        -3.6381   -1.1269    0.8216 C.3       1 <0>         0.0735
     20 C20        -1.1775   -1.3469    1.2061 C.3       1 <0>         0.0792
     21 C21        -1.8086    1.5140   -1.2466 C.3       1 <0>         0.2470
     22 C22        -2.6823   -0.6456    3.1086 C.3       1 <0>         0.2493
     23 N1          1.0674    1.2853   -3.4846 N.pl3     1 <0>        -0.5192
     24 N2         -0.1296   -0.9070    5.7063 N.pl3     1 <0>        -0.5179
     25 N3         -2.0428    0.2454   -0.4742 N.4       1 <0>        -0.7137
     26 N4         -2.5509   -1.4196    1.8252 N.4       1 <0>        -0.7135
     27 H1          2.7388    3.4244    0.9580 H         1 <0>         0.1593
     28 H2         -1.3969   -5.7565    4.2983 H         1 <0>         0.1589
     29 H3          4.4150    3.1012   -0.8253 H         1 <0>         0.1682
     30 H4          0.3204   -5.5169    6.0553 H         1 <0>         0.1676
     31 H5          0.3809    2.7495    0.6154 H         1 <0>         0.1247
     32 H6         -2.4461   -3.7607    3.2741 H         1 <0>         0.1259
     33 H7          3.7672    2.0914   -3.0061 H         1 <0>         0.1640
     34 H8          1.0310   -3.2623    6.8347 H         1 <0>         0.1649
     35 H9         -0.9118    0.6479   -3.9555 H         1 <0>         0.1783
     36 H10        -0.9237    0.9175    4.9407 H         1 <0>         0.1787
     37 H11        -4.1417    0.3801   -0.6468 H         1 <0>         0.1444
     38 H12        -3.4683    1.0500    0.8671 H         1 <0>         0.1211
     39 H13        -0.9738    0.8269    1.2569 H         1 <0>         0.1184
     40 H14        -0.0003    0.0096   -0.0000 H         1 <0>         0.1625
     41 H15        -4.5941   -1.1614    1.3542 H         1 <0>         0.1217
     42 H16        -3.6174   -1.9434    0.0908 H         1 <0>         0.1444
     43 H17        -1.1171   -2.1669    0.4815 H         1 <0>         0.1176
     44 H18        -0.4488   -1.5318    2.0021 H         1 <0>         0.1624
     45 H19        -1.8939    2.3385   -0.5306 H         1 <0>         0.1105
     46 H20        -2.6347    1.6049   -1.9601 H         1 <0>         0.1015
     47 H21        -3.7006   -0.8146    3.4750 H         1 <0>         0.1098
     48 H22        -2.5934    0.4144    2.8472 H         1 <0>         0.1013
     49 H23         1.5229    1.0454   -4.3543 H         1 <0>         0.4881
     50 H24         0.5213   -0.5270    6.3795 H         1 <0>         0.4882
     51 H25        -1.9940   -0.4842   -1.2050 H         1 <0>         0.4431
     52 H26        -2.6851   -2.4029    2.1217 H         1 <0>         0.4430
@<TRIPOS>BOND
     1    1    3 ar
     2    1    5 ar
     3    2    4 ar
     4    2    6 ar
     5    3    7 ar
     6    4    8 ar
     7    5   11 ar
     8    6   12 ar
     9    7   15 ar
    10    8   16 ar
    11    9   13 2
    12    9   23 1
    13   10   14 2
    14   10   24 1
    15   11   13 1
    16   11   15 ar
    17   12   14 1
    18   12   16 ar
    19   13   21 1
    20   14   22 1
    21   15   23 1
    22   16   24 1
    23   17   19 1
    24   17   25 1
    25   18   20 1
    26   18   25 1
    27   19   26 1
    28   20   26 1
    29   21   25 1
    30   22   26 1
    31    1   27 1
    32    2   28 1
    33    3   29 1
    34    4   30 1
    35    5   31 1
    36    6   32 1
    37    7   33 1
    38    8   34 1
    39    9   35 1
    40   10   36 1
    41   17   37 1
    42   17   38 1
    43   18   39 1
    44   18   40 1
    45   19   41 1
    46   19   42 1
    47   20   43 1
    48   20   44 1
    49   21   45 1
    50   21   46 1
    51   22   47 1
    52   22   48 1
    53   23   49 1
    54   24   50 1
    55   25   51 1
    56   26   52 1
@<TRIPOS>MOLECULE
ZINC00092235_43
   52    56     0     0     0
SMALL
USER_CHARGES

mmff94s_NoEstat = 58.20
@<TRIPOS>ATOM
      1 C1         -5.9187    3.7250   -1.2918 C.ar      1 <0>        -0.0978
      2 C2         -5.3421   -4.3853    3.9593 C.ar      1 <0>        -0.0984
      3 C3         -6.5319    3.6818   -2.5423 C.ar      1 <0>        -0.0943
      4 C4         -6.5273   -4.0567    4.6144 C.ar      1 <0>        -0.0957
      5 C5         -4.6763    3.1158   -1.0817 C.ar      1 <0>        -0.1265
      6 C6         -4.4135   -3.3949    3.6189 C.ar      1 <0>        -0.1261
      7 C7         -5.9255    3.0305   -3.6203 C.ar      1 <0>        -0.1009
      8 C8         -6.8223   -2.7322    4.9497 C.ar      1 <0>        -0.1004
      9 C9         -2.7381    1.3111   -3.6010 C.2       1 <0>         0.0849
     10 C10        -4.7696    0.1792    4.2966 C.2       1 <0>         0.0824
     11 C11        -4.0458    2.4532   -2.1535 C.ar      1 <0>        -0.0700
     12 C12        -4.6892   -2.0525    3.9466 C.ar      1 <0>        -0.0695
     13 C13        -2.8353    1.7498   -2.3149 C.2       1 <0>        -0.3121
     14 C14        -4.0166   -0.8268    3.7704 C.2       1 <0>        -0.3108
     15 C15        -4.6836    2.4259   -3.3956 C.ar      1 <0>         0.0626
     16 C16        -5.8848   -1.7527    4.6031 C.ar      1 <0>         0.0622
     17 C17        -3.4142    0.2187    0.1554 C.3       1 <0>         0.0793
     18 C18        -0.9527   -0.0013    0.5399 C.3       1 <0>         0.0777
     19 C19        -3.6381   -1.1269    0.8216 C.3       1 <0>         0.0735
     20 C20        -1.1775   -1.3469    1.2061 C.3       1 <0>         0.0792
     21 C21        -1.8086    1.5140   -1.2466 C.3       1 <0>         0.2470
     22 C22        -2.6823   -0.6456    3.1086 C.3       1 <0>         0.2493
     23 N1         -3.8670    1.7262   -4.2550 N.pl3     1 <0>        -0.5192
     24 N2         -5.9067   -0.3908    4.8029 N.pl3     1 <0>        -0.5179
     25 N3         -2.0428    0.2454   -0.4742 N.4       1 <0>        -0.7137
     26 N4         -2.5509   -1.4196    1.8252 N.4       1 <0>        -0.7135
     27 H1         -6.4097    4.2368   -0.4686 H         1 <0>         0.1593
     28 H2         -5.1349   -5.4220    3.7085 H         1 <0>         0.1589
     29 H3         -7.4968    4.1616   -2.6837 H         1 <0>         0.1682
     30 H4         -7.2346   -4.8415    4.8697 H         1 <0>         0.1676
     31 H5         -4.2110    3.1583   -0.1011 H         1 <0>         0.1247
     32 H6         -3.4940   -3.6669    3.1085 H         1 <0>         0.1259
     33 H7         -6.4043    2.9973   -4.5932 H         1 <0>         0.1640
     34 H8         -7.7456   -2.4779    5.4594 H         1 <0>         0.1649
     35 H9         -1.9795    0.7438   -4.1224 H         1 <0>         0.1783
     36 H10        -4.6145    1.2472    4.3643 H         1 <0>         0.1787
     37 H11        -4.1417    0.3801   -0.6468 H         1 <0>         0.1444
     38 H12        -3.4683    1.0500    0.8671 H         1 <0>         0.1211
     39 H13        -0.9738    0.8269    1.2569 H         1 <0>         0.1184
     40 H14        -0.0003    0.0096   -0.0000 H         1 <0>         0.1625
     41 H15        -4.5941   -1.1614    1.3542 H         1 <0>         0.1217
     42 H16        -3.6174   -1.9434    0.0908 H         1 <0>         0.1444
     43 H17        -1.1171   -2.1669    0.4815 H         1 <0>         0.1176
     44 H18        -0.4488   -1.5318    2.0021 H         1 <0>         0.1624
     45 H19        -0.8026    1.4412   -1.6735 H         1 <0>         0.1105
     46 H20        -1.8030    2.3304   -0.5164 H         1 <0>         0.1015
     47 H21        -2.5025    0.4062    2.8614 H         1 <0>         0.1098
     48 H22        -1.8685   -0.9787    3.7616 H         1 <0>         0.1013
     49 H23        -4.0723    1.5455   -5.2280 H         1 <0>         0.4881
     50 H24        -6.6549    0.1141    5.2577 H         1 <0>         0.4882
     51 H25        -1.9940   -0.4842   -1.2050 H         1 <0>         0.4431
     52 H26        -2.6851   -2.4029    2.1217 H         1 <0>         0.4430
@<TRIPOS>BOND
     1    1    3 ar
     2    1    5 ar
     3    2    4 ar
     4    2    6 ar
     5    3    7 ar
     6    4    8 ar
     7    5   11 ar
     8    6   12 ar
     9    7   15 ar
    10    8   16 ar
    11    9   13 2
    12    9   23 1
    13   10   14 2
    14   10   24 1
    15   11   13 1
    16   11   15 ar
    17   12   14 1
    18   12   16 ar
    19   13   21 1
    20   14   22 1
    21   15   23 1
    22   16   24 1
    23   17   19 1
    24   17   25 1
    25   18   20 1
    26   18   25 1
    27   19   26 1
    28   20   26 1
    29   21   25 1
    30   22   26 1
    31    1   27 1
    32    2   28 1
    33    3   29 1
    34    4   30 1
    35    5   31 1
    36    6   32 1
    37    7   33 1
    38    8   34 1
    39    9   35 1
    40   10   36 1
    41   17   37 1
    42   17   38 1
    43   18   39 1
    44   18   40 1
    45   19   41 1
    46   19   42 1
    47   20   43 1
    48   20   44 1
    49   21   45 1
    50   21   46 1
    51   22   47 1
    52   22   48 1
    53   23   49 1
    54   24   50 1
    55   25   51 1
    56   26   52 1
@<TRIPOS>MOLECULE
ZINC00092235_44
   52    56     0     0     0
SMALL
USER_CHARGES

mmff94s_NoEstat = 59.58
@<TRIPOS>ATOM
      1 C1         -5.9187    3.7250   -1.2918 C.ar      1 <0>        -0.0978
      2 C2         -6.7416    1.6353    2.7862 C.ar      1 <0>        -0.0984
      3 C3         -6.5319    3.6818   -2.5423 C.ar      1 <0>        -0.0943
      4 C4         -7.7236    1.0920    3.6121 C.ar      1 <0>        -0.0957
      5 C5         -4.6763    3.1158   -1.0817 C.ar      1 <0>        -0.1265
      6 C6         -5.4552    1.0853    2.7455 C.ar      1 <0>        -0.1261
      7 C7         -5.9255    3.0305   -3.6203 C.ar      1 <0>        -0.1009
      8 C8         -7.4532   -0.0150    4.4216 C.ar      1 <0>        -0.1004
      9 C9         -2.7381    1.3111   -3.6010 C.2       1 <0>         0.0849
     10 C10        -4.3100   -1.7950    4.6827 C.2       1 <0>         0.0824
     11 C11        -4.0458    2.4532   -2.1535 C.ar      1 <0>        -0.0700
     12 C12        -5.1591   -0.0309    3.5528 C.ar      1 <0>        -0.0695
     13 C13        -2.8353    1.7498   -2.3149 C.2       1 <0>        -0.3121
     14 C14        -4.0166   -0.8268    3.7704 C.2       1 <0>        -0.3108
     15 C15        -4.6836    2.4259   -3.3956 C.ar      1 <0>         0.0626
     16 C16        -6.1629   -0.5543    4.3706 C.ar      1 <0>         0.0622
     17 C17        -3.4142    0.2187    0.1554 C.3       1 <0>         0.0793
     18 C18        -0.9527   -0.0013    0.5399 C.3       1 <0>         0.0777
     19 C19        -3.6381   -1.1269    0.8216 C.3       1 <0>         0.0735
     20 C20        -1.1775   -1.3469    1.2061 C.3       1 <0>         0.0792
     21 C21        -1.8086    1.5140   -1.2466 C.3       1 <0>         0.2470
     22 C22        -2.6823   -0.6456    3.1086 C.3       1 <0>         0.2493
     23 N1         -3.8670    1.7262   -4.2550 N.pl3     1 <0>        -0.5192
     24 N2         -5.6193   -1.6244    5.0448 N.pl3     1 <0>        -0.5179
     25 N3         -2.0428    0.2454   -0.4742 N.4       1 <0>        -0.7137
     26 N4         -2.5509   -1.4196    1.8252 N.4       1 <0>        -0.7135
     27 H1         -6.4097    4.2368   -0.4686 H         1 <0>         0.1593
     28 H2         -6.9752    2.4964    2.1662 H         1 <0>         0.1589
     29 H3         -7.4968    4.1616   -2.6837 H         1 <0>         0.1682
     30 H4         -8.7161    1.5346    3.6283 H         1 <0>         0.1676
     31 H5         -4.2110    3.1583   -0.1011 H         1 <0>         0.1247
     32 H6         -4.7004    1.5200    2.0963 H         1 <0>         0.1259
     33 H7         -6.4043    2.9973   -4.5932 H         1 <0>         0.1640
     34 H8         -8.2187   -0.4367    5.0644 H         1 <0>         0.1649
     35 H9         -1.9795    0.7438   -4.1224 H         1 <0>         0.1783
     36 H10        -3.7209   -2.5922    5.1147 H         1 <0>         0.1787
     37 H11        -4.1417    0.3801   -0.6468 H         1 <0>         0.1444
     38 H12        -3.4683    1.0500    0.8671 H         1 <0>         0.1211
     39 H13        -0.9738    0.8269    1.2569 H         1 <0>         0.1184
     40 H14        -0.0003    0.0096   -0.0000 H         1 <0>         0.1625
     41 H15        -4.5941   -1.1614    1.3542 H         1 <0>         0.1217
     42 H16        -3.6174   -1.9434    0.0908 H         1 <0>         0.1444
     43 H17        -1.1171   -2.1669    0.4815 H         1 <0>         0.1176
     44 H18        -0.4488   -1.5318    2.0021 H         1 <0>         0.1624
     45 H19        -0.8026    1.4412   -1.6735 H         1 <0>         0.1105
     46 H20        -1.8030    2.3304   -0.5164 H         1 <0>         0.1015
     47 H21        -2.5025    0.4062    2.8614 H         1 <0>         0.1098
     48 H22        -1.8685   -0.9787    3.7616 H         1 <0>         0.1013
     49 H23        -4.0723    1.5455   -5.2280 H         1 <0>         0.4881
     50 H24        -6.1159   -2.2000    5.7107 H         1 <0>         0.4882
     51 H25        -1.9940   -0.4842   -1.2050 H         1 <0>         0.4431
     52 H26        -2.6851   -2.4029    2.1217 H         1 <0>         0.4430
@<TRIPOS>BOND
     1    1    3 ar
     2    1    5 ar
     3    2    4 ar
     4    2    6 ar
     5    3    7 ar
     6    4    8 ar
     7    5   11 ar
     8    6   12 ar
     9    7   15 ar
    10    8   16 ar
    11    9   13 2
    12    9   23 1
    13   10   14 2
    14   10   24 1
    15   11   13 1
    16   11   15 ar
    17   12   14 1
    18   12   16 ar
    19   13   21 1
    20   14   22 1
    21   15   23 1
    22   16   24 1
    23   17   19 1
    24   17   25 1
    25   18   20 1
    26   18   25 1
    27   19   26 1
    28   20   26 1
    29   21   25 1
    30   22   26 1
    31    1   27 1
    32    2   28 1
    33    3   29 1
    34    4   30 1
    35    5   31 1
    36    6   32 1
    37    7   33 1
    38    8   34 1
    39    9   35 1
    40   10   36 1
    41   17   37 1
    42   17   38 1
    43   18   39 1
    44   18   40 1
    45   19   41 1
    46   19   42 1
    47   20   43 1
    48   20   44 1
    49   21   45 1
    50   21   46 1
    51   22   47 1
    52   22   48 1
    53   23   49 1
    54   24   50 1
    55   25   51 1
    56   26   52 1
@<TRIPOS>MOLECULE
ZINC00092235_45
   52    56     0     0     0
SMALL
USER_CHARGES

mmff94s_NoEstat = 59.68
@<TRIPOS>ATOM
      1 C1          1.5222    4.7572   -1.6600 C.ar      1 <0>        -0.0978
      2 C2          1.6163    0.8856    4.0889 C.ar      1 <0>        -0.0984
      3 C3          2.6004    4.3173   -2.4253 C.ar      1 <0>        -0.0943
      4 C4          2.1928    0.2028    5.1580 C.ar      1 <0>        -0.0957
      5 C5          0.4236    3.9227   -1.4238 C.ar      1 <0>        -0.1265
      6 C6          0.3271    0.5668    3.6469 C.ar      1 <0>        -0.1261
      7 C7          2.6160    3.0333   -2.9777 C.ar      1 <0>        -0.1009
      8 C8          1.5022   -0.8174    5.8183 C.ar      1 <0>        -0.1004
      9 C9          0.0403    0.5065   -2.6659 C.2       1 <0>         0.0849
     10 C10        -1.8323   -2.0164    5.0698 C.2       1 <0>         0.0824
     11 C11         0.4169    2.6241   -1.9705 C.ar      1 <0>        -0.0700
     12 C12        -0.3885   -0.4582    4.2970 C.ar      1 <0>        -0.0695
     13 C13        -0.4823    1.5392   -1.9474 C.2       1 <0>        -0.3121
     14 C14        -1.6635   -1.0370    4.1380 C.2       1 <0>        -0.3108
     15 C15         1.5110    2.2102   -2.7332 C.ar      1 <0>         0.0626
     16 C16         0.2144   -1.1253    5.3656 C.ar      1 <0>         0.0622
     17 C17        -3.4142    0.2187    0.1554 C.3       1 <0>         0.0793
     18 C18        -0.9527   -0.0013    0.5399 C.3       1 <0>         0.0777
     19 C19        -3.6381   -1.1269    0.8216 C.3       1 <0>         0.0735
     20 C20        -1.1775   -1.3469    1.2061 C.3       1 <0>         0.0792
     21 C21        -1.8086    1.5140   -1.2466 C.3       1 <0>         0.2470
     22 C22        -2.6823   -0.6456    3.1086 C.3       1 <0>         0.2493
     23 N1          1.2552    0.9208   -3.1423 N.pl3     1 <0>        -0.5192
     24 N2         -0.6850   -2.0657    5.8153 N.pl3     1 <0>        -0.5179
     25 N3         -2.0428    0.2454   -0.4742 N.4       1 <0>        -0.7137
     26 N4         -2.5509   -1.4196    1.8252 N.4       1 <0>        -0.7135
     27 H1          1.5324    5.7598   -1.2414 H         1 <0>         0.1593
     28 H2          2.1728    1.6747    3.5908 H         1 <0>         0.1589
     29 H3          3.4434    4.9815   -2.5964 H         1 <0>         0.1682
     30 H4          3.1952    0.4665    5.4852 H         1 <0>         0.1676
     31 H5         -0.4092    4.2801   -0.8249 H         1 <0>         0.1247
     32 H6         -0.1088    1.1083    2.8122 H         1 <0>         0.1259
     33 H7          3.4560    2.6923   -3.5736 H         1 <0>         0.1640
     34 H8          1.9525   -1.3484    6.6504 H         1 <0>         0.1649
     35 H9         -0.3271   -0.4855   -2.8896 H         1 <0>         0.1783
     36 H10        -2.6532   -2.6874    5.2818 H         1 <0>         0.1787
     37 H11        -4.1417    0.3801   -0.6468 H         1 <0>         0.1444
     38 H12        -3.4683    1.0500    0.8671 H         1 <0>         0.1211
     39 H13        -0.9738    0.8269    1.2569 H         1 <0>         0.1184
     40 H14        -0.0003    0.0096   -0.0000 H         1 <0>         0.1625
     41 H15        -4.5941   -1.1614    1.3542 H         1 <0>         0.1217
     42 H16        -3.6174   -1.9434    0.0908 H         1 <0>         0.1444
     43 H17        -1.1171   -2.1669    0.4815 H         1 <0>         0.1176
     44 H18        -0.4488   -1.5318    2.0021 H         1 <0>         0.1624
     45 H19        -1.8939    2.3385   -0.5306 H         1 <0>         0.1105
     46 H20        -2.6347    1.6049   -1.9601 H         1 <0>         0.1015
     47 H21        -3.7006   -0.8146    3.4750 H         1 <0>         0.1098
     48 H22        -2.5934    0.4144    2.8472 H         1 <0>         0.1013
     49 H23         1.8753    0.3619   -3.7120 H         1 <0>         0.4881
     50 H24        -0.5207   -2.7002    6.5846 H         1 <0>         0.4882
     51 H25        -1.9940   -0.4842   -1.2050 H         1 <0>         0.4431
     52 H26        -2.6851   -2.4029    2.1217 H         1 <0>         0.4430
@<TRIPOS>BOND
     1    1    3 ar
     2    1    5 ar
     3    2    4 ar
     4    2    6 ar
     5    3    7 ar
     6    4    8 ar
     7    5   11 ar
     8    6   12 ar
     9    7   15 ar
    10    8   16 ar
    11    9   13 2
    12    9   23 1
    13   10   14 2
    14   10   24 1
    15   11   13 1
    16   11   15 ar
    17   12   14 1
    18   12   16 ar
    19   13   21 1
    20   14   22 1
    21   15   23 1
    22   16   24 1
    23   17   19 1
    24   17   25 1
    25   18   20 1
    26   18   25 1
    27   19   26 1
    28   20   26 1
    29   21   25 1
    30   22   26 1
    31    1   27 1
    32    2   28 1
    33    3   29 1
    34    4   30 1
    35    5   31 1
    36    6   32 1
    37    7   33 1
    38    8   34 1
    39    9   35 1
    40   10   36 1
    41   17   37 1
    42   17   38 1
    43   18   39 1
    44   18   40 1
    45   19   41 1
    46   19   42 1
    47   20   43 1
    48   20   44 1
    49   21   45 1
    50   21   46 1
    51   22   47 1
    52   22   48 1
    53   23   49 1
    54   24   50 1
    55   25   51 1
    56   26   52 1
@<TRIPOS>MOLECULE
ZINC00092235_46
   52    56     0     0     0
SMALL
USER_CHARGES

mmff94s_NoEstat = 60.31
@<TRIPOS>ATOM
      1 C1         -6.7416    1.6353    2.7862 C.ar      1 <0>        -0.0978
      2 C2          2.4394    2.9813    0.0121 C.ar      1 <0>        -0.0984
      3 C3         -7.7236    1.0920    3.6121 C.ar      1 <0>        -0.0943
      4 C4          3.3849    2.7989   -0.9951 C.ar      1 <0>        -0.0957
      5 C5         -5.4552    1.0853    2.7455 C.ar      1 <0>        -0.1265
      6 C6          1.1062    2.6010   -0.1795 C.ar      1 <0>        -0.1261
      7 C7         -7.4532   -0.0150    4.4216 C.ar      1 <0>        -0.1009
      8 C8          3.0301    2.2324   -2.2227 C.ar      1 <0>        -0.1004
      9 C9         -4.3100   -1.7950    4.6827 C.2       1 <0>         0.0849
     10 C10        -0.2604    1.0894   -3.2140 C.2       1 <0>         0.0824
     11 C11        -5.1591   -0.0309    3.5528 C.ar      1 <0>        -0.0700
     12 C12         0.7249    2.0278   -1.4090 C.ar      1 <0>        -0.0695
     13 C13        -4.0166   -0.8268    3.7704 C.2       1 <0>        -0.3121
     14 C14        -0.4823    1.5392   -1.9474 C.2       1 <0>        -0.3108
     15 C15        -6.1629   -0.5543    4.3706 C.ar      1 <0>         0.0626
     16 C16         1.6937    1.8571   -2.4002 C.ar      1 <0>         0.0622
     17 C17        -1.1775   -1.3469    1.2061 C.3       1 <0>         0.0793
     18 C18        -3.6381   -1.1269    0.8216 C.3       1 <0>         0.0777
     19 C19        -0.9527   -0.0013    0.5399 C.3       1 <0>         0.0735
     20 C20        -3.4142    0.2187    0.1554 C.3       1 <0>         0.0792
     21 C21        -2.6823   -0.6456    3.1086 C.3       1 <0>         0.2470
     22 C22        -1.8086    1.5140   -1.2466 C.3       1 <0>         0.2493
     23 N1         -5.6193   -1.6244    5.0448 N.pl3     1 <0>        -0.5192
     24 N2          1.0674    1.2853   -3.4846 N.pl3     1 <0>        -0.5179
     25 N3         -2.5509   -1.4196    1.8252 N.4       1 <0>        -0.7137
     26 N4         -2.0428    0.2454   -0.4742 N.4       1 <0>        -0.7135
     27 H1         -6.9752    2.4964    2.1662 H         1 <0>         0.1593
     28 H2          2.7388    3.4244    0.9580 H         1 <0>         0.1589
     29 H3         -8.7161    1.5346    3.6283 H         1 <0>         0.1682
     30 H4          4.4150    3.1012   -0.8253 H         1 <0>         0.1676
     31 H5         -4.7004    1.5200    2.0963 H         1 <0>         0.1247
     32 H6          0.3809    2.7495    0.6154 H         1 <0>         0.1259
     33 H7         -8.2187   -0.4367    5.0644 H         1 <0>         0.1640
     34 H8          3.7672    2.0914   -3.0061 H         1 <0>         0.1649
     35 H9         -3.7209   -2.5922    5.1147 H         1 <0>         0.1783
     36 H10        -0.9118    0.6479   -3.9555 H         1 <0>         0.1787
     37 H11        -1.1171   -2.1669    0.4815 H         1 <0>         0.1444
     38 H12        -0.4488   -1.5318    2.0021 H         1 <0>         0.1211
     39 H13        -4.5941   -1.1614    1.3542 H         1 <0>         0.1184
     40 H14        -3.6174   -1.9434    0.0908 H         1 <0>         0.1625
     41 H15        -0.9738    0.8269    1.2569 H         1 <0>         0.1217
     42 H16        -0.0003    0.0096   -0.0000 H         1 <0>         0.1444
     43 H17        -4.1417    0.3801   -0.6468 H         1 <0>         0.1176
     44 H18        -3.4683    1.0500    0.8671 H         1 <0>         0.1624
     45 H19        -2.5025    0.4062    2.8614 H         1 <0>         0.1105
     46 H20        -1.8685   -0.9787    3.7616 H         1 <0>         0.1015
     47 H21        -1.8939    2.3385   -0.5306 H         1 <0>         0.1098
     48 H22        -2.6347    1.6049   -1.9601 H         1 <0>         0.1013
     49 H23        -6.1159   -2.2000    5.7107 H         1 <0>         0.4881
     50 H24         1.5229    1.0454   -4.3543 H         1 <0>         0.4882
     51 H25        -2.6851   -2.4029    2.1217 H         1 <0>         0.4431
     52 H26        -1.9940   -0.4842   -1.2050 H         1 <0>         0.4430
@<TRIPOS>BOND
     1    1    3 ar
     2    1    5 ar
     3    2    4 ar
     4    2    6 ar
     5    3    7 ar
     6    4    8 ar
     7    5   11 ar
     8    6   12 ar
     9    7   15 ar
    10    8   16 ar
    11    9   13 2
    12    9   23 1
    13   10   14 2
    14   10   24 1
    15   11   13 1
    16   11   15 ar
    17   12   14 1
    18   12   16 ar
    19   13   21 1
    20   14   22 1
    21   15   23 1
    22   16   24 1
    23   17   19 1
    24   17   25 1
    25   18   20 1
    26   18   25 1
    27   19   26 1
    28   20   26 1
    29   21   25 1
    30   22   26 1
    31    1   27 1
    32    2   28 1
    33    3   29 1
    34    4   30 1
    35    5   31 1
    36    6   32 1
    37    7   33 1
    38    8   34 1
    39    9   35 1
    40   10   36 1
    41   17   37 1
    42   17   38 1
    43   18   39 1
    44   18   40 1
    45   19   41 1
    46   19   42 1
    47   20   43 1
    48   20   44 1
    49   21   45 1
    50   21   46 1
    51   22   47 1
    52   22   48 1
    53   23   49 1
    54   24   50 1
    55   25   51 1
    56   26   52 1
@<TRIPOS>MOLECULE
ZINC00092235_47
   52    56     0     0     0
SMALL
USER_CHARGES

mmff94s_NoEstat = 60.37
@<TRIPOS>ATOM
      1 C1         -5.9187    3.7250   -1.2918 C.ar      1 <0>        -0.0978
      2 C2          1.6163    0.8856    4.0889 C.ar      1 <0>        -0.0984
      3 C3         -6.5319    3.6818   -2.5423 C.ar      1 <0>        -0.0943
      4 C4          2.1928    0.2028    5.1580 C.ar      1 <0>        -0.0957
      5 C5         -4.6763    3.1158   -1.0817 C.ar      1 <0>        -0.1265
      6 C6          0.3271    0.5668    3.6469 C.ar      1 <0>        -0.1261
      7 C7         -5.9255    3.0305   -3.6203 C.ar      1 <0>        -0.1009
      8 C8          1.5022   -0.8174    5.8183 C.ar      1 <0>        -0.1004
      9 C9         -2.7381    1.3111   -3.6010 C.2       1 <0>         0.0849
     10 C10        -1.8323   -2.0164    5.0698 C.2       1 <0>         0.0824
     11 C11        -4.0458    2.4532   -2.1535 C.ar      1 <0>        -0.0700
     12 C12        -0.3885   -0.4582    4.2970 C.ar      1 <0>        -0.0695
     13 C13        -2.8353    1.7498   -2.3149 C.2       1 <0>        -0.3121
     14 C14        -1.6635   -1.0370    4.1380 C.2       1 <0>        -0.3108
     15 C15        -4.6836    2.4259   -3.3956 C.ar      1 <0>         0.0626
     16 C16         0.2144   -1.1253    5.3656 C.ar      1 <0>         0.0622
     17 C17        -3.4142    0.2187    0.1554 C.3       1 <0>         0.0793
     18 C18        -0.9527   -0.0013    0.5399 C.3       1 <0>         0.0777
     19 C19        -3.6381   -1.1269    0.8216 C.3       1 <0>         0.0735
     20 C20        -1.1775   -1.3469    1.2061 C.3       1 <0>         0.0792
     21 C21        -1.8086    1.5140   -1.2466 C.3       1 <0>         0.2470
     22 C22        -2.6823   -0.6456    3.1086 C.3       1 <0>         0.2493
     23 N1         -3.8670    1.7262   -4.2550 N.pl3     1 <0>        -0.5192
     24 N2         -0.6850   -2.0657    5.8153 N.pl3     1 <0>        -0.5179
     25 N3         -2.0428    0.2454   -0.4742 N.4       1 <0>        -0.7137
     26 N4         -2.5509   -1.4196    1.8252 N.4       1 <0>        -0.7135
     27 H1         -6.4097    4.2368   -0.4686 H         1 <0>         0.1593
     28 H2          2.1728    1.6747    3.5908 H         1 <0>         0.1589
     29 H3         -7.4968    4.1616   -2.6837 H         1 <0>         0.1682
     30 H4          3.1952    0.4665    5.4852 H         1 <0>         0.1676
     31 H5         -4.2110    3.1583   -0.1011 H         1 <0>         0.1247
     32 H6         -0.1088    1.1083    2.8122 H         1 <0>         0.1259
     33 H7         -6.4043    2.9973   -4.5932 H         1 <0>         0.1640
     34 H8          1.9525   -1.3484    6.6504 H         1 <0>         0.1649
     35 H9         -1.9795    0.7438   -4.1224 H         1 <0>         0.1783
     36 H10        -2.6532   -2.6874    5.2818 H         1 <0>         0.1787
     37 H11        -4.1417    0.3801   -0.6468 H         1 <0>         0.1444
     38 H12        -3.4683    1.0500    0.8671 H         1 <0>         0.1211
     39 H13        -0.9738    0.8269    1.2569 H         1 <0>         0.1184
     40 H14        -0.0003    0.0096   -0.0000 H         1 <0>         0.1625
     41 H15        -4.5941   -1.1614    1.3542 H         1 <0>         0.1217
     42 H16        -3.6174   -1.9434    0.0908 H         1 <0>         0.1444
     43 H17        -1.1171   -2.1669    0.4815 H         1 <0>         0.1176
     44 H18        -0.4488   -1.5318    2.0021 H         1 <0>         0.1624
     45 H19        -0.8026    1.4412   -1.6735 H         1 <0>         0.1105
     46 H20        -1.8030    2.3304   -0.5164 H         1 <0>         0.1015
     47 H21        -3.7006   -0.8146    3.4750 H         1 <0>         0.1098
     48 H22        -2.5934    0.4144    2.8472 H         1 <0>         0.1013
     49 H23        -4.0723    1.5455   -5.2280 H         1 <0>         0.4881
     50 H24        -0.5207   -2.7002    6.5846 H         1 <0>         0.4882
     51 H25        -1.9940   -0.4842   -1.2050 H         1 <0>         0.4431
     52 H26        -2.6851   -2.4029    2.1217 H         1 <0>         0.4430
@<TRIPOS>BOND
     1    1    3 ar
     2    1    5 ar
     3    2    4 ar
     4    2    6 ar
     5    3    7 ar
     6    4    8 ar
     7    5   11 ar
     8    6   12 ar
     9    7   15 ar
    10    8   16 ar
    11    9   13 2
    12    9   23 1
    13   10   14 2
    14   10   24 1
    15   11   13 1
    16   11   15 ar
    17   12   14 1
    18   12   16 ar
    19   13   21 1
    20   14   22 1
    21   15   23 1
    22   16   24 1
    23   17   19 1
    24   17   25 1
    25   18   20 1
    26   18   25 1
    27   19   26 1
    28   20   26 1
    29   21   25 1
    30   22   26 1
    31    1   27 1
    32    2   28 1
    33    3   29 1
    34    4   30 1
    35    5   31 1
    36    6   32 1
    37    7   33 1
    38    8   34 1
    39    9   35 1
    40   10   36 1
    41   17   37 1
    42   17   38 1
    43   18   39 1
    44   18   40 1
    45   19   41 1
    46   19   42 1
    47   20   43 1
    48   20   44 1
    49   21   45 1
    50   21   46 1
    51   22   47 1
    52   22   48 1
    53   23   49 1
    54   24   50 1
    55   25   51 1
    56   26   52 1
@<TRIPOS>MOLECULE
ZINC00092235_48
   52    56     0     0     0
SMALL
USER_CHARGES

mmff94s_NoEstat = 74.48
@<TRIPOS>ATOM
      1 C1          5.6001    2.0756    1.3647 C.ar      1 <0>        -0.0978
      2 C2         -5.1575   -2.3143    0.6946 C.ar      1 <0>        -0.0984
      3 C3          5.3322    1.9565    2.7270 C.ar      1 <0>        -0.0943
      4 C4         -6.2838   -1.4939    0.7006 C.ar      1 <0>        -0.0957
      5 C5          4.7341    1.5240    0.4135 C.ar      1 <0>        -0.1265
      6 C6         -4.2930   -2.3363   -0.4059 C.ar      1 <0>        -0.1261
      7 C7          4.1940    1.2845    3.1817 C.ar      1 <0>        -0.1009
      8 C8         -6.5820   -0.6712   -0.3895 C.ar      1 <0>        -0.1004
      9 C9          1.6574   -0.3085    1.1460 C.2       1 <0>         0.0849
     10 C10        -4.6815   -0.3610   -3.4568 C.2       1 <0>         0.0824
     11 C11         3.5803    0.8419    0.8482 C.ar      1 <0>        -0.0700
     12 C12        -4.5733   -1.5155   -1.5165 C.ar      1 <0>        -0.0695
     13 C13         2.5148    0.1795    0.2065 C.2       1 <0>        -0.3121
     14 C14        -3.9544   -1.2786   -2.7602 C.2       1 <0>        -0.3108
     15 C15         3.3374    0.7381    2.2195 C.ar      1 <0>         0.0626
     16 C16        -5.7090   -0.7036   -1.4827 C.ar      1 <0>         0.0622
     17 C17        -0.1424   -0.0915   -1.0817 C.3       1 <0>         0.0793
     18 C18         0.9917   -0.9303   -3.1418 C.3       1 <0>         0.0777
     19 C19        -1.3452   -0.9655   -1.3875 C.3       1 <0>         0.0735
     20 C20        -0.2112   -1.8040   -3.4486 C.3       1 <0>         0.0792
     21 C21         2.3415    0.0283   -1.2761 C.3       1 <0>         0.2470
     22 C22        -2.6944   -1.9286   -3.2510 C.3       1 <0>         0.2493
     23 N1          2.1635    0.0350    2.3709 N.pl3     1 <0>        -0.5192
     24 N2         -5.7494   -0.0139   -2.6734 N.pl3     1 <0>        -0.5179
     25 N3          1.1000   -0.7329   -1.6495 N.4       1 <0>        -0.7137
     26 N4         -1.4541   -1.1645   -2.8795 N.4       1 <0>        -0.7135
     27 H1          6.4915    2.6021    1.0351 H         1 <0>         0.1593
     28 H2         -4.9465   -2.9456    1.5534 H         1 <0>         0.1589
     29 H3          6.0180    2.3925    3.4487 H         1 <0>         0.1682
     30 H4         -6.9418   -1.4921    1.5656 H         1 <0>         0.1676
     31 H5          4.9565    1.6254   -0.6449 H         1 <0>         0.1247
     32 H6         -3.4189   -2.9811   -0.3954 H         1 <0>         0.1259
     33 H7          3.9870    1.1923    4.2427 H         1 <0>         0.1640
     34 H8         -7.4595   -0.0333   -0.3836 H         1 <0>         0.1649
     35 H9          0.7350   -0.8676    1.0710 H         1 <0>         0.1783
     36 H10        -4.5503    0.0840   -4.4335 H         1 <0>         0.1787
     37 H11        -0.2330    0.9061   -1.5261 H         1 <0>         0.1444
     38 H12         0.0058    0.0018   -0.0008 H         1 <0>         0.1211
     39 H13         1.9168   -1.4131   -3.4726 H         1 <0>         0.1184
     40 H14         0.9112    0.0608   -3.6025 H         1 <0>         0.1625
     41 H15        -1.2640   -1.9562   -0.9260 H         1 <0>         0.1217
     42 H16        -2.2707   -0.4835   -1.0562 H         1 <0>         0.1444
     43 H17        -0.3596   -1.8946   -4.5294 H         1 <0>         0.1176
     44 H18        -0.1203   -2.8031   -3.0074 H         1 <0>         0.1624
     45 H19         2.2719    1.0044   -1.7682 H         1 <0>         0.1105
     46 H20         3.1859   -0.5098   -1.7202 H         1 <0>         0.1015
     47 H21        -2.5802   -2.9353   -2.8349 H         1 <0>         0.1098
     48 H22        -2.6943   -2.0168   -4.3428 H         1 <0>         0.1013
     49 H23         1.7379   -0.1940    3.2585 H         1 <0>         0.4881
     50 H24        -6.4647    0.6521   -2.9310 H         1 <0>         0.4882
     51 H25         1.2452   -1.6500   -1.1961 H         1 <0>         0.4431
     52 H26        -1.6017   -0.2480   -3.3335 H         1 <0>         0.4430
@<TRIPOS>BOND
     1    1    3 ar
     2    1    5 ar
     3    2    4 ar
     4    2    6 ar
     5    3    7 ar
     6    4    8 ar
     7    5   11 ar
     8    6   12 ar
     9    7   15 ar
    10    8   16 ar
    11    9   13 2
    12    9   23 1
    13   10   14 2
    14   10   24 1
    15   11   13 1
    16   11   15 ar
    17   12   14 1
    18   12   16 ar
    19   13   21 1
    20   14   22 1
    21   15   23 1
    22   16   24 1
    23   17   19 1
    24   17   25 1
    25   18   20 1
    26   18   25 1
    27   19   26 1
    28   20   26 1
    29   21   25 1
    30   22   26 1
    31    1   27 1
    32    2   28 1
    33    3   29 1
    34    4   30 1
    35    5   31 1
    36    6   32 1
    37    7   33 1
    38    8   34 1
    39    9   35 1
    40   10   36 1
    41   17   37 1
    42   17   38 1
    43   18   39 1
    44   18   40 1
    45   19   41 1
    46   19   42 1
    47   20   43 1
    48   20   44 1
    49   21   45 1
    50   21   46 1
    51   22   47 1
    52   22   48 1
    53   23   49 1
    54   24   50 1
    55   25   51 1
    56   26   52 1
@<TRIPOS>MOLECULE
ZINC00092235_49
   52    56     0     0     0
SMALL
USER_CHARGES

mmff94s_NoEstat = 74.51
@<TRIPOS>ATOM
      1 C1          6.8596    1.1461   -0.9283 C.ar      1 <0>        -0.0978
      2 C2         -1.2984   -5.1625   -6.3131 C.ar      1 <0>        -0.0984
      3 C3          7.6869    0.2169   -1.5560 C.ar      1 <0>        -0.0943
      4 C4         -1.7054   -4.8736   -7.6141 C.ar      1 <0>        -0.0957
      5 C5          5.4697    0.9812   -0.9259 C.ar      1 <0>        -0.1265
      6 C6         -1.6234   -4.3069   -5.2541 C.ar      1 <0>        -0.1261
      7 C7          7.1541   -0.9036   -2.1997 C.ar      1 <0>        -0.1009
      8 C8         -2.4480   -3.7240   -7.8984 C.ar      1 <0>        -0.1004
      9 C9          3.6522   -1.7843   -2.4781 C.2       1 <0>         0.0849
     10 C10        -3.5385   -1.2063   -5.5345 C.2       1 <0>         0.0824
     11 C11         4.9096   -0.1407   -1.5686 C.ar      1 <0>        -0.0700
     12 C12        -2.3712   -3.1419   -5.5165 C.ar      1 <0>        -0.0695
     13 C13         3.6006   -0.6238   -1.7663 C.2       1 <0>        -0.3121
     14 C14        -2.8688   -2.0813   -4.7333 C.2       1 <0>        -0.3108
     15 C15         5.7630   -1.0554   -2.1894 C.ar      1 <0>         0.0626
     16 C16        -2.7655   -2.8779   -6.8300 C.ar      1 <0>         0.0622
     17 C17         0.9917   -0.9303   -3.1418 C.3       1 <0>         0.0793
     18 C18        -0.1424   -0.0915   -1.0817 C.3       1 <0>         0.0777
     19 C19        -0.2112   -1.8040   -3.4486 C.3       1 <0>         0.0735
     20 C20        -1.3452   -0.9655   -1.3875 C.3       1 <0>         0.0792
     21 C21         2.3415    0.0283   -1.2761 C.3       1 <0>         0.2470
     22 C22        -2.6944   -1.9286   -3.2510 C.3       1 <0>         0.2493
     23 N1          4.9723   -2.0427   -2.7329 N.pl3     1 <0>        -0.5192
     24 N2         -3.4725   -1.6968   -6.8110 N.pl3     1 <0>        -0.5179
     25 N3          1.1000   -0.7329   -1.6495 N.4       1 <0>        -0.7137
     26 N4         -1.4541   -1.1645   -2.8795 N.4       1 <0>        -0.7135
     27 H1          7.2968    2.0097   -0.4348 H         1 <0>         0.1593
     28 H2         -0.7214   -6.0620   -6.1165 H         1 <0>         0.1589
     29 H3          8.7637    0.3642   -1.5458 H         1 <0>         0.1682
     30 H4         -1.4424   -5.5517   -8.4216 H         1 <0>         0.1676
     31 H5          4.8381    1.7141   -0.4321 H         1 <0>         0.1247
     32 H6         -1.2990   -4.5460   -4.2454 H         1 <0>         0.1259
     33 H7          7.7994   -1.6259   -2.6883 H         1 <0>         0.1640
     34 H8         -2.7639   -3.5001   -8.9119 H         1 <0>         0.1649
     35 H9          2.8835   -2.4573   -2.8320 H         1 <0>         0.1783
     36 H10        -4.0580   -0.2805   -5.3289 H         1 <0>         0.1787
     37 H11         1.9168   -1.4131   -3.4726 H         1 <0>         0.1444
     38 H12         0.9112    0.0608   -3.6025 H         1 <0>         0.1211
     39 H13        -0.2330    0.9061   -1.5261 H         1 <0>         0.1184
     40 H14         0.0058    0.0018   -0.0008 H         1 <0>         0.1625
     41 H15        -0.3596   -1.8946   -4.5294 H         1 <0>         0.1217
     42 H16        -0.1203   -2.8031   -3.0074 H         1 <0>         0.1444
     43 H17        -1.2640   -1.9562   -0.9260 H         1 <0>         0.1176
     44 H18        -2.2707   -0.4835   -1.0562 H         1 <0>         0.1624
     45 H19         2.3402    0.1161   -0.1844 H         1 <0>         0.1105
     46 H20         2.2300    1.0355   -1.6920 H         1 <0>         0.1015
     47 H21        -3.5394   -1.3921   -2.8061 H         1 <0>         0.1098
     48 H22        -2.6221   -2.9043   -2.7587 H         1 <0>         0.1013
     49 H23         5.3177   -2.8421   -3.2458 H         1 <0>         0.4881
     50 H24        -3.8830   -1.2564   -7.6228 H         1 <0>         0.4882
     51 H25         1.2452   -1.6500   -1.1961 H         1 <0>         0.4431
     52 H26        -1.6017   -0.2480   -3.3335 H         1 <0>         0.4430
@<TRIPOS>BOND
     1    1    3 ar
     2    1    5 ar
     3    2    4 ar
     4    2    6 ar
     5    3    7 ar
     6    4    8 ar
     7    5   11 ar
     8    6   12 ar
     9    7   15 ar
    10    8   16 ar
    11    9   13 2
    12    9   23 1
    13   10   14 2
    14   10   24 1
    15   11   13 1
    16   11   15 ar
    17   12   14 1
    18   12   16 ar
    19   13   21 1
    20   14   22 1
    21   15   23 1
    22   16   24 1
    23   17   19 1
    24   17   25 1
    25   18   20 1
    26   18   25 1
    27   19   26 1
    28   20   26 1
    29   21   25 1
    30   22   26 1
    31    1   27 1
    32    2   28 1
    33    3   29 1
    34    4   30 1
    35    5   31 1
    36    6   32 1
    37    7   33 1
    38    8   34 1
    39    9   35 1
    40   10   36 1
    41   17   37 1
    42   17   38 1
    43   18   39 1
    44   18   40 1
    45   19   41 1
    46   19   42 1
    47   20   43 1
    48   20   44 1
    49   21   45 1
    50   21   46 1
    51   22   47 1
    52   22   48 1
    53   23   49 1
    54   24   50 1
    55   25   51 1
    56   26   52 1
@<TRIPOS>MOLECULE
ZINC00092235_50
   52    56     0     0     0
SMALL
USER_CHARGES

mmff94s_NoEstat = 74.93
@<TRIPOS>ATOM
      1 C1          6.1696    1.6625   -3.3876 C.ar      1 <0>        -0.0978
      2 C2         -5.7726   -5.4267   -3.5184 C.ar      1 <0>        -0.0984
      3 C3          7.0967    0.6582   -3.6591 C.ar      1 <0>        -0.0943
      4 C4         -5.3512   -6.5598   -2.8254 C.ar      1 <0>        -0.0957
      5 C5          4.9564    1.3657   -2.7561 C.ar      1 <0>        -0.1265
      6 C6         -4.9812   -4.2728   -3.5535 C.ar      1 <0>        -0.1261
      7 C7          6.8425   -0.6711   -3.3095 C.ar      1 <0>        -0.1009
      8 C8         -4.1291   -6.5767   -2.1470 C.ar      1 <0>        -0.1004
      9 C9          3.8782   -1.9542   -1.6715 C.2       1 <0>         0.0849
     10 C10        -1.7308   -3.8716   -1.9304 C.2       1 <0>         0.0824
     11 C11         4.6779    0.0326   -2.3943 C.ar      1 <0>        -0.0700
     12 C12        -3.7452   -4.2664   -2.8770 C.ar      1 <0>        -0.0695
     13 C13         3.6006   -0.6238   -1.7663 C.2       1 <0>        -0.3121
     14 C14        -2.7150   -3.3221   -2.6954 C.2       1 <0>        -0.3108
     15 C15         5.6255   -0.9530   -2.6788 C.ar      1 <0>         0.0626
     16 C16        -3.3485   -5.4161   -2.1907 C.ar      1 <0>         0.0622
     17 C17         0.9917   -0.9303   -3.1418 C.3       1 <0>         0.0793
     18 C18        -0.1424   -0.0915   -1.0817 C.3       1 <0>         0.0777
     19 C19        -0.2112   -1.8040   -3.4486 C.3       1 <0>         0.0735
     20 C20        -1.3452   -0.9655   -1.3875 C.3       1 <0>         0.0792
     21 C21         2.3415    0.0283   -1.2761 C.3       1 <0>         0.2470
     22 C22        -2.6944   -1.9286   -3.2510 C.3       1 <0>         0.2493
     23 N1          5.1135   -2.1491   -2.2288 N.pl3     1 <0>        -0.5192
     24 N2         -2.1220   -5.1479   -1.6259 N.pl3     1 <0>        -0.5179
     25 N3          1.1000   -0.7329   -1.6495 N.4       1 <0>        -0.7137
     26 N4         -1.4541   -1.1645   -2.8795 N.4       1 <0>        -0.7135
     27 H1          6.3893    2.6886   -3.6693 H         1 <0>         0.1593
     28 H2         -6.7269   -5.4370   -4.0379 H         1 <0>         0.1589
     29 H3          8.0328    0.9106   -4.1503 H         1 <0>         0.1682
     30 H4         -5.9812   -7.4452   -2.8111 H         1 <0>         0.1676
     31 H5          4.2439    2.1596   -2.5510 H         1 <0>         0.1247
     32 H6         -5.3234   -3.3976   -4.0983 H         1 <0>         0.1259
     33 H7          7.5650   -1.4520   -3.5219 H         1 <0>         0.1640
     34 H8         -3.8025   -7.4595   -1.6075 H         1 <0>         0.1649
     35 H9          3.3230   -2.7875   -1.2634 H         1 <0>         0.1783
     36 H10        -0.7876   -3.4861   -1.5685 H         1 <0>         0.1787
     37 H11         1.9168   -1.4131   -3.4726 H         1 <0>         0.1444
     38 H12         0.9112    0.0608   -3.6025 H         1 <0>         0.1211
     39 H13        -0.2330    0.9061   -1.5261 H         1 <0>         0.1184
     40 H14         0.0058    0.0018   -0.0008 H         1 <0>         0.1625
     41 H15        -0.3596   -1.8946   -4.5294 H         1 <0>         0.1217
     42 H16        -0.1203   -2.8031   -3.0074 H         1 <0>         0.1444
     43 H17        -1.2640   -1.9562   -0.9260 H         1 <0>         0.1176
     44 H18        -2.2707   -0.4835   -1.0562 H         1 <0>         0.1624
     45 H19         2.3402    0.1161   -0.1844 H         1 <0>         0.1105
     46 H20         2.2300    1.0355   -1.6920 H         1 <0>         0.1015
     47 H21        -2.7422   -1.9378   -4.3452 H         1 <0>         0.1098
     48 H22        -3.5454   -1.3442   -2.8848 H         1 <0>         0.1013
     49 H23         5.5826   -3.0414   -2.3003 H         1 <0>         0.4881
     50 H24        -1.5885   -5.7996   -1.0673 H         1 <0>         0.4882
     51 H25         1.2452   -1.6500   -1.1961 H         1 <0>         0.4431
     52 H26        -1.6017   -0.2480   -3.3335 H         1 <0>         0.4430
@<TRIPOS>BOND
     1    1    3 ar
     2    1    5 ar
     3    2    4 ar
     4    2    6 ar
     5    3    7 ar
     6    4    8 ar
     7    5   11 ar
     8    6   12 ar
     9    7   15 ar
    10    8   16 ar
    11    9   13 2
    12    9   23 1
    13   10   14 2
    14   10   24 1
    15   11   13 1
    16   11   15 ar
    17   12   14 1
    18   12   16 ar
    19   13   21 1
    20   14   22 1
    21   15   23 1
    22   16   24 1
    23   17   19 1
    24   17   25 1
    25   18   20 1
    26   18   25 1
    27   19   26 1
    28   20   26 1
    29   21   25 1
    30   22   26 1
    31    1   27 1
    32    2   28 1
    33    3   29 1
    34    4   30 1
    35    5   31 1
    36    6   32 1
    37    7   33 1
    38    8   34 1
    39    9   35 1
    40   10   36 1
    41   17   37 1
    42   17   38 1
    43   18   39 1
    44   18   40 1
    45   19   41 1
    46   19   42 1
    47   20   43 1
    48   20   44 1
    49   21   45 1
    50   21   46 1
    51   22   47 1
    52   22   48 1
    53   23   49 1
    54   24   50 1
    55   25   51 1
    56   26   52 1
@<TRIPOS>MOLECULE
ZINC00092235_51
   52    56     0     0     0
SMALL
USER_CHARGES

mmff94s_NoEstat = 75.46
@<TRIPOS>ATOM
      1 C1          0.9531    3.2650    1.7865 C.ar      1 <0>        -0.0978
      2 C2         -5.7726   -5.4267   -3.5184 C.ar      1 <0>        -0.0984
      3 C3          1.3586    2.9744    3.0876 C.ar      1 <0>        -0.0943
      4 C4         -5.3512   -6.5598   -2.8254 C.ar      1 <0>        -0.0957
      5 C5          1.2759    2.4088    0.7274 C.ar      1 <0>        -0.1265
      6 C6         -4.9812   -4.2728   -3.5535 C.ar      1 <0>        -0.1261
      7 C7          2.0974    1.8223    3.3719 C.ar      1 <0>        -0.1009
      8 C8         -4.1291   -6.5767   -2.1470 C.ar      1 <0>        -0.1004
      9 C9          3.1818   -0.6976    1.0075 C.2       1 <0>         0.0849
     10 C10        -1.7308   -3.8716   -1.9304 C.2       1 <0>         0.0824
     11 C11         2.0200    1.2413    0.9898 C.ar      1 <0>        -0.0700
     12 C12        -3.7452   -4.2664   -2.8770 C.ar      1 <0>        -0.0695
     13 C13         2.5148    0.1795    0.2065 C.2       1 <0>        -0.3121
     14 C14        -2.7150   -3.3221   -2.6954 C.2       1 <0>        -0.3108
     15 C15         2.4128    0.9756    2.3033 C.ar      1 <0>         0.0626
     16 C16        -3.3485   -5.4161   -2.1907 C.ar      1 <0>         0.0622
     17 C17         0.9917   -0.9303   -3.1418 C.3       1 <0>         0.0793
     18 C18        -0.1424   -0.0915   -1.0817 C.3       1 <0>         0.0777
     19 C19        -0.2112   -1.8040   -3.4486 C.3       1 <0>         0.0735
     20 C20        -1.3452   -0.9655   -1.3875 C.3       1 <0>         0.0792
     21 C21         2.3415    0.0283   -1.2761 C.3       1 <0>         0.2470
     22 C22        -2.6944   -1.9286   -3.2510 C.3       1 <0>         0.2493
     23 N1          3.1163   -0.2076    2.2843 N.pl3     1 <0>        -0.5192
     24 N2         -2.1220   -5.1479   -1.6259 N.pl3     1 <0>        -0.5179
     25 N3          1.1000   -0.7329   -1.6495 N.4       1 <0>        -0.7137
     26 N4         -1.4541   -1.1645   -2.8795 N.4       1 <0>        -0.7135
     27 H1          0.3800    4.1669    1.5898 H         1 <0>         0.1593
     28 H2         -6.7269   -5.4370   -4.0379 H         1 <0>         0.1589
     29 H3          1.0971    3.6529    3.8953 H         1 <0>         0.1682
     30 H4         -5.9812   -7.4452   -2.8111 H         1 <0>         0.1676
     31 H5          0.9524    2.6490   -0.2813 H         1 <0>         0.1247
     32 H6         -5.3234   -3.3976   -4.0983 H         1 <0>         0.1259
     33 H7          2.4127    1.5975    4.3853 H         1 <0>         0.1640
     34 H8         -3.8025   -7.4595   -1.6075 H         1 <0>         0.1649
     35 H9          3.6993   -1.6244    0.8017 H         1 <0>         0.1783
     36 H10        -0.7876   -3.4861   -1.5685 H         1 <0>         0.1787
     37 H11         1.9168   -1.4131   -3.4726 H         1 <0>         0.1444
     38 H12         0.9112    0.0608   -3.6025 H         1 <0>         0.1211
     39 H13        -0.2330    0.9061   -1.5261 H         1 <0>         0.1184
     40 H14         0.0058    0.0018   -0.0008 H         1 <0>         0.1625
     41 H15        -0.3596   -1.8946   -4.5294 H         1 <0>         0.1217
     42 H16        -0.1203   -2.8031   -3.0074 H         1 <0>         0.1444
     43 H17        -1.2640   -1.9562   -0.9260 H         1 <0>         0.1176
     44 H18        -2.2707   -0.4835   -1.0562 H         1 <0>         0.1624
     45 H19         2.2719    1.0044   -1.7682 H         1 <0>         0.1105
     46 H20         3.1859   -0.5098   -1.7202 H         1 <0>         0.1015
     47 H21        -2.7422   -1.9378   -4.3452 H         1 <0>         0.1098
     48 H22        -3.5454   -1.3442   -2.8848 H         1 <0>         0.1013
     49 H23         3.5249   -0.6496    3.0961 H         1 <0>         0.4881
     50 H24        -1.5885   -5.7996   -1.0673 H         1 <0>         0.4882
     51 H25         1.2452   -1.6500   -1.1961 H         1 <0>         0.4431
     52 H26        -1.6017   -0.2480   -3.3335 H         1 <0>         0.4430
@<TRIPOS>BOND
     1    1    3 ar
     2    1    5 ar
     3    2    4 ar
     4    2    6 ar
     5    3    7 ar
     6    4    8 ar
     7    5   11 ar
     8    6   12 ar
     9    7   15 ar
    10    8   16 ar
    11    9   13 2
    12    9   23 1
    13   10   14 2
    14   10   24 1
    15   11   13 1
    16   11   15 ar
    17   12   14 1
    18   12   16 ar
    19   13   21 1
    20   14   22 1
    21   15   23 1
    22   16   24 1
    23   17   19 1
    24   17   25 1
    25   18   20 1
    26   18   25 1
    27   19   26 1
    28   20   26 1
    29   21   25 1
    30   22   26 1
    31    1   27 1
    32    2   28 1
    33    3   29 1
    34    4   30 1
    35    5   31 1
    36    6   32 1
    37    7   33 1
    38    8   34 1
    39    9   35 1
    40   10   36 1
    41   17   37 1
    42   17   38 1
    43   18   39 1
    44   18   40 1
    45   19   41 1
    46   19   42 1
    47   20   43 1
    48   20   44 1
    49   21   45 1
    50   21   46 1
    51   22   47 1
    52   22   48 1
    53   23   49 1
    54   24   50 1
    55   25   51 1
    56   26   52 1
@<TRIPOS>MOLECULE
ZINC00092235_52
   52    56     0     0     0
SMALL
USER_CHARGES

mmff94s_NoEstat = 76.09
@<TRIPOS>ATOM
      1 C1          0.3069    4.6647   -3.9635 C.ar      1 <0>        -0.0978
      2 C2          0.0684    1.8081    5.9715 C.ar      1 <0>        -0.0984
      3 C3          1.5612    4.2377   -4.3951 C.ar      1 <0>        -0.0943
      4 C4          0.8694    0.9921    6.7679 C.ar      1 <0>        -0.0957
      5 C5         -0.4807    3.8541   -3.1379 C.ar      1 <0>        -0.1265
      6 C6         -0.8248    1.2532    5.0479 C.ar      1 <0>        -0.1261
      7 C7          2.0677    2.9910   -4.0171 C.ar      1 <0>        -0.1009
      8 C8          0.8040   -0.4006    6.6678 C.ar      1 <0>        -0.1004
      9 C9          0.4389    0.5362   -1.9104 C.2       1 <0>         0.0849
     10 C10        -1.3243   -2.3184    4.4523 C.2       1 <0>         0.0824
     11 C11         0.0089    2.5929   -2.7439 C.ar      1 <0>        -0.0700
     12 C12        -0.9082   -0.1484    4.9292 C.ar      1 <0>        -0.0695
     13 C13        -0.4823    1.5392   -1.9474 C.2       1 <0>        -0.3121
     14 C14        -1.6635   -1.0370    4.1380 C.2       1 <0>        -0.3108
     15 C15         1.2692    2.1913   -3.1916 C.ar      1 <0>         0.0626
     16 C16        -0.0935   -0.9413    5.7402 C.ar      1 <0>         0.0622
     17 C17        -3.4142    0.2187    0.1554 C.3       1 <0>         0.0793
     18 C18        -0.9527   -0.0013    0.5399 C.3       1 <0>         0.0777
     19 C19        -3.6381   -1.1269    0.8216 C.3       1 <0>         0.0735
     20 C20        -1.1775   -1.3469    1.2061 C.3       1 <0>         0.0792
     21 C21        -1.8086    1.5140   -1.2466 C.3       1 <0>         0.2470
     22 C22        -2.6823   -0.6456    3.1086 C.3       1 <0>         0.2493
     23 N1          1.5043    0.9391   -2.6701 N.pl3     1 <0>        -0.5192
     24 N2         -0.3674   -2.2542    5.4294 N.pl3     1 <0>        -0.5179
     25 N3         -2.0428    0.2454   -0.4742 N.4       1 <0>        -0.7137
     26 N4         -2.5509   -1.4196    1.8252 N.4       1 <0>        -0.7135
     27 H1         -0.0659    5.6378   -4.2708 H         1 <0>         0.1593
     28 H2          0.1372    2.8883    6.0667 H         1 <0>         0.1589
     29 H3          2.1565    4.8831   -5.0357 H         1 <0>         0.1682
     30 H4          1.5562    1.4439    7.4788 H         1 <0>         0.1676
     31 H5         -1.4563    4.2011   -2.8096 H         1 <0>         0.1247
     32 H6         -1.4427    1.9026    4.4343 H         1 <0>         0.1259
     33 H7          3.0442    2.6598   -4.3542 H         1 <0>         0.1640
     34 H8          1.4284   -1.0346    7.2883 H         1 <0>         0.1649
     35 H9          0.4481   -0.4276   -1.4204 H         1 <0>         0.1783
     36 H10        -1.6655   -3.2749    4.0809 H         1 <0>         0.1787
     37 H11        -4.1417    0.3801   -0.6468 H         1 <0>         0.1444
     38 H12        -3.4683    1.0500    0.8671 H         1 <0>         0.1211
     39 H13        -0.9738    0.8269    1.2569 H         1 <0>         0.1184
     40 H14        -0.0003    0.0096   -0.0000 H         1 <0>         0.1625
     41 H15        -4.5941   -1.1614    1.3542 H         1 <0>         0.1217
     42 H16        -3.6174   -1.9434    0.0908 H         1 <0>         0.1444
     43 H17        -1.1171   -2.1669    0.4815 H         1 <0>         0.1176
     44 H18        -0.4488   -1.5318    2.0021 H         1 <0>         0.1624
     45 H19        -1.8939    2.3385   -0.5306 H         1 <0>         0.1105
     46 H20        -2.6347    1.6049   -1.9601 H         1 <0>         0.1015
     47 H21        -3.7006   -0.8146    3.4750 H         1 <0>         0.1098
     48 H22        -2.5934    0.4144    2.8472 H         1 <0>         0.1013
     49 H23         2.3425    0.3966   -2.8264 H         1 <0>         0.4881
     50 H24         0.0748   -3.0541    5.8607 H         1 <0>         0.4882
     51 H25        -1.9940   -0.4842   -1.2050 H         1 <0>         0.4431
     52 H26        -2.6851   -2.4029    2.1217 H         1 <0>         0.4430
@<TRIPOS>BOND
     1    1    3 ar
     2    1    5 ar
     3    2    4 ar
     4    2    6 ar
     5    3    7 ar
     6    4    8 ar
     7    5   11 ar
     8    6   12 ar
     9    7   15 ar
    10    8   16 ar
    11    9   13 2
    12    9   23 1
    13   10   14 2
    14   10   24 1
    15   11   13 1
    16   11   15 ar
    17   12   14 1
    18   12   16 ar
    19   13   21 1
    20   14   22 1
    21   15   23 1
    22   16   24 1
    23   17   19 1
    24   17   25 1
    25   18   20 1
    26   18   25 1
    27   19   26 1
    28   20   26 1
    29   21   25 1
    30   22   26 1
    31    1   27 1
    32    2   28 1
    33    3   29 1
    34    4   30 1
    35    5   31 1
    36    6   32 1
    37    7   33 1
    38    8   34 1
    39    9   35 1
    40   10   36 1
    41   17   37 1
    42   17   38 1
    43   18   39 1
    44   18   40 1
    45   19   41 1
    46   19   42 1
    47   20   43 1
    48   20   44 1
    49   21   45 1
    50   21   46 1
    51   22   47 1
    52   22   48 1
    53   23   49 1
    54   24   50 1
    55   25   51 1
    56   26   52 1
@<TRIPOS>MOLECULE
ZINC00092235_53
   52    56     0     0     0
SMALL
USER_CHARGES

mmff94s_NoEstat = 76.18
@<TRIPOS>ATOM
      1 C1          3.9409    1.8505   -5.2643 C.ar      1 <0>        -0.0978
      2 C2         -5.7726   -5.4267   -3.5184 C.ar      1 <0>        -0.0984
      3 C3          3.7379    3.2270   -5.3388 C.ar      1 <0>        -0.0943
      4 C4         -5.3512   -6.5598   -2.8254 C.ar      1 <0>        -0.0957
      5 C5          3.5271    1.1252   -4.1410 C.ar      1 <0>        -0.1265
      6 C6         -4.9812   -4.2728   -3.5535 C.ar      1 <0>        -0.1261
      7 C7          3.1167    3.9215   -4.2969 C.ar      1 <0>        -0.1009
      8 C8         -4.1291   -6.5767   -2.1470 C.ar      1 <0>        -0.1004
      9 C9          1.8707    2.5224   -1.1975 C.2       1 <0>         0.0849
     10 C10        -1.7308   -3.8716   -1.9304 C.2       1 <0>         0.0824
     11 C11         2.8986    1.8037   -3.0780 C.ar      1 <0>        -0.0700
     12 C12        -3.7452   -4.2664   -2.8770 C.ar      1 <0>        -0.0695
     13 C13         2.3654    1.4222   -1.8306 C.2       1 <0>        -0.3121
     14 C14        -2.7150   -3.3221   -2.6954 C.2       1 <0>        -0.3108
     15 C15         2.7083    3.1834   -3.1803 C.ar      1 <0>         0.0626
     16 C16        -3.3485   -5.4161   -2.1907 C.ar      1 <0>         0.0622
     17 C17         0.9917   -0.9303   -3.1418 C.3       1 <0>         0.0793
     18 C18        -0.1424   -0.0915   -1.0817 C.3       1 <0>         0.0777
     19 C19        -0.2112   -1.8040   -3.4486 C.3       1 <0>         0.0735
     20 C20        -1.3452   -0.9655   -1.3875 C.3       1 <0>         0.0792
     21 C21         2.3415    0.0283   -1.2761 C.3       1 <0>         0.2470
     22 C22        -2.6944   -1.9286   -3.2510 C.3       1 <0>         0.2493
     23 N1          2.0820    3.5927   -2.0246 N.pl3     1 <0>        -0.5192
     24 N2         -2.1220   -5.1479   -1.6259 N.pl3     1 <0>        -0.5179
     25 N3          1.1000   -0.7329   -1.6495 N.4       1 <0>        -0.7137
     26 N4         -1.4541   -1.1645   -2.8795 N.4       1 <0>        -0.7135
     27 H1          4.4266    1.3324   -6.0866 H         1 <0>         0.1593
     28 H2         -6.7269   -5.4370   -4.0379 H         1 <0>         0.1589
     29 H3          4.0670    3.7709   -6.2204 H         1 <0>         0.1682
     30 H4         -5.9812   -7.4452   -2.8111 H         1 <0>         0.1676
     31 H5          3.6922    0.0524   -4.0979 H         1 <0>         0.1247
     32 H6         -5.3234   -3.3976   -4.0983 H         1 <0>         0.1259
     33 H7          2.9596    4.9933   -4.3562 H         1 <0>         0.1640
     34 H8         -3.8025   -7.4595   -1.6075 H         1 <0>         0.1649
     35 H9          1.3876    2.6567   -0.2395 H         1 <0>         0.1783
     36 H10        -0.7876   -3.4861   -1.5685 H         1 <0>         0.1787
     37 H11         1.9168   -1.4131   -3.4726 H         1 <0>         0.1444
     38 H12         0.9112    0.0608   -3.6025 H         1 <0>         0.1211
     39 H13        -0.2330    0.9061   -1.5261 H         1 <0>         0.1184
     40 H14         0.0058    0.0018   -0.0008 H         1 <0>         0.1625
     41 H15        -0.3596   -1.8946   -4.5294 H         1 <0>         0.1217
     42 H16        -0.1203   -2.8031   -3.0074 H         1 <0>         0.1444
     43 H17        -1.2640   -1.9562   -0.9260 H         1 <0>         0.1176
     44 H18        -2.2707   -0.4835   -1.0562 H         1 <0>         0.1624
     45 H19         3.1916   -0.5578   -1.6415 H         1 <0>         0.1105
     46 H20         2.3879    0.0371   -0.1818 H         1 <0>         0.1015
     47 H21        -2.7422   -1.9378   -4.3452 H         1 <0>         0.1098
     48 H22        -3.5454   -1.3442   -2.8848 H         1 <0>         0.1013
     49 H23         1.8173    4.5459   -1.8178 H         1 <0>         0.4881
     50 H24        -1.5885   -5.7996   -1.0673 H         1 <0>         0.4882
     51 H25         1.2452   -1.6500   -1.1961 H         1 <0>         0.4431
     52 H26        -1.6017   -0.2480   -3.3335 H         1 <0>         0.4430
@<TRIPOS>BOND
     1    1    3 ar
     2    1    5 ar
     3    2    4 ar
     4    2    6 ar
     5    3    7 ar
     6    4    8 ar
     7    5   11 ar
     8    6   12 ar
     9    7   15 ar
    10    8   16 ar
    11    9   13 2
    12    9   23 1
    13   10   14 2
    14   10   24 1
    15   11   13 1
    16   11   15 ar
    17   12   14 1
    18   12   16 ar
    19   13   21 1
    20   14   22 1
    21   15   23 1
    22   16   24 1
    23   17   19 1
    24   17   25 1
    25   18   20 1
    26   18   25 1
    27   19   26 1
    28   20   26 1
    29   21   25 1
    30   22   26 1
    31    1   27 1
    32    2   28 1
    33    3   29 1
    34    4   30 1
    35    5   31 1
    36    6   32 1
    37    7   33 1
    38    8   34 1
    39    9   35 1
    40   10   36 1
    41   17   37 1
    42   17   38 1
    43   18   39 1
    44   18   40 1
    45   19   41 1
    46   19   42 1
    47   20   43 1
    48   20   44 1
    49   21   45 1
    50   21   46 1
    51   22   47 1
    52   22   48 1
    53   23   49 1
    54   24   50 1
    55   25   51 1
    56   26   52 1
@<TRIPOS>MOLECULE
ZINC00092235_54
   52    56     0     0     0
SMALL
USER_CHARGES

mmff94s_NoEstat = 76.19
@<TRIPOS>ATOM
      1 C1          0.8439    4.1378    0.3526 C.ar      1 <0>        -0.0978
      2 C2         -5.7726   -5.4267   -3.5184 C.ar      1 <0>        -0.0984
      3 C3          1.0885    5.1829   -0.5360 C.ar      1 <0>        -0.0943
      4 C4         -5.3512   -6.5598   -2.8254 C.ar      1 <0>        -0.0957
      5 C5          1.2228    2.8274    0.0391 C.ar      1 <0>        -0.1265
      6 C6         -4.9812   -4.2728   -3.5535 C.ar      1 <0>        -0.1261
      7 C7          1.7177    4.9534   -1.7629 C.ar      1 <0>        -0.1009
      8 C8         -4.1291   -6.5767   -2.1470 C.ar      1 <0>        -0.1004
      9 C9          2.8851    1.7719   -3.0404 C.2       1 <0>         0.0849
     10 C10        -1.7308   -3.8716   -1.9304 C.2       1 <0>         0.0824
     11 C11         1.8586    2.5717   -1.1921 C.ar      1 <0>        -0.0700
     12 C12        -3.7452   -4.2664   -2.8770 C.ar      1 <0>        -0.0695
     13 C13         2.3654    1.4222   -1.8306 C.2       1 <0>        -0.3121
     14 C14        -2.7150   -3.3221   -2.6954 C.2       1 <0>        -0.3108
     15 C15         2.0909    3.6385   -2.0630 C.ar      1 <0>         0.0626
     16 C16        -3.3485   -5.4161   -2.1907 C.ar      1 <0>         0.0622
     17 C17         0.9917   -0.9303   -3.1418 C.3       1 <0>         0.0793
     18 C18        -0.1424   -0.0915   -1.0817 C.3       1 <0>         0.0777
     19 C19        -0.2112   -1.8040   -3.4486 C.3       1 <0>         0.0735
     20 C20        -1.3452   -0.9655   -1.3875 C.3       1 <0>         0.0792
     21 C21         2.3415    0.0283   -1.2761 C.3       1 <0>         0.2470
     22 C22        -2.6944   -1.9286   -3.2510 C.3       1 <0>         0.2493
     23 N1          2.7153    3.1236   -3.1766 N.pl3     1 <0>        -0.5192
     24 N2         -2.1220   -5.1479   -1.6259 N.pl3     1 <0>        -0.5179
     25 N3          1.1000   -0.7329   -1.6495 N.4       1 <0>        -0.7137
     26 N4         -1.4541   -1.1645   -2.8795 N.4       1 <0>        -0.7135
     27 H1          0.3528    4.3406    1.3004 H         1 <0>         0.1593
     28 H2         -6.7269   -5.4370   -4.0379 H         1 <0>         0.1589
     29 H3          0.7861    6.1930   -0.2726 H         1 <0>         0.1682
     30 H4         -5.9812   -7.4452   -2.8111 H         1 <0>         0.1676
     31 H5          1.0254    2.0234    0.7424 H         1 <0>         0.1247
     32 H6         -5.3234   -3.3976   -4.0983 H         1 <0>         0.1259
     33 H7          1.9072    5.7680   -2.4540 H         1 <0>         0.1640
     34 H8         -3.8025   -7.4595   -1.6075 H         1 <0>         0.1649
     35 H9          3.3606    1.1973   -3.8232 H         1 <0>         0.1783
     36 H10        -0.7876   -3.4861   -1.5685 H         1 <0>         0.1787
     37 H11         1.9168   -1.4131   -3.4726 H         1 <0>         0.1444
     38 H12         0.9112    0.0608   -3.6025 H         1 <0>         0.1211
     39 H13        -0.2330    0.9061   -1.5261 H         1 <0>         0.1184
     40 H14         0.0058    0.0018   -0.0008 H         1 <0>         0.1625
     41 H15        -0.3596   -1.8946   -4.5294 H         1 <0>         0.1217
     42 H16        -0.1203   -2.8031   -3.0074 H         1 <0>         0.1444
     43 H17        -1.2640   -1.9562   -0.9260 H         1 <0>         0.1176
     44 H18        -2.2707   -0.4835   -1.0562 H         1 <0>         0.1624
     45 H19         3.1916   -0.5578   -1.6415 H         1 <0>         0.1105
     46 H20         2.3879    0.0371   -0.1818 H         1 <0>         0.1015
     47 H21        -2.7422   -1.9378   -4.3452 H         1 <0>         0.1098
     48 H22        -3.5454   -1.3442   -2.8848 H         1 <0>         0.1013
     49 H23         3.0058    3.6661   -3.9784 H         1 <0>         0.4881
     50 H24        -1.5885   -5.7996   -1.0673 H         1 <0>         0.4882
     51 H25         1.2452   -1.6500   -1.1961 H         1 <0>         0.4431
     52 H26        -1.6017   -0.2480   -3.3335 H         1 <0>         0.4430
@<TRIPOS>BOND
     1    1    3 ar
     2    1    5 ar
     3    2    4 ar
     4    2    6 ar
     5    3    7 ar
     6    4    8 ar
     7    5   11 ar
     8    6   12 ar
     9    7   15 ar
    10    8   16 ar
    11    9   13 2
    12    9   23 1
    13   10   14 2
    14   10   24 1
    15   11   13 1
    16   11   15 ar
    17   12   14 1
    18   12   16 ar
    19   13   21 1
    20   14   22 1
    21   15   23 1
    22   16   24 1
    23   17   19 1
    24   17   25 1
    25   18   20 1
    26   18   25 1
    27   19   26 1
    28   20   26 1
    29   21   25 1
    30   22   26 1
    31    1   27 1
    32    2   28 1
    33    3   29 1
    34    4   30 1
    35    5   31 1
    36    6   32 1
    37    7   33 1
    38    8   34 1
    39    9   35 1
    40   10   36 1
    41   17   37 1
    42   17   38 1
    43   18   39 1
    44   18   40 1
    45   19   41 1
    46   19   42 1
    47   20   43 1
    48   20   44 1
    49   21   45 1
    50   21   46 1
    51   22   47 1
    52   22   48 1
    53   23   49 1
    54   24   50 1
    55   25   51 1
    56   26   52 1
@<TRIPOS>MOLECULE
ZINC00092235_55
   52    56     0     0     0
SMALL
USER_CHARGES

mmff94s_NoEstat = 76.28
@<TRIPOS>ATOM
      1 C1         -2.4259    4.9114   -4.3867 C.ar      1 <0>        -0.0978
      2 C2         -4.3008   -3.6975    6.2471 C.ar      1 <0>        -0.0984
      3 C3         -3.5450    4.6970   -5.1888 C.ar      1 <0>        -0.0943
      4 C4         -5.6367   -3.4690    6.5709 C.ar      1 <0>        -0.0957
      5 C5         -2.0770    3.9983   -3.3850 C.ar      1 <0>        -0.1265
      6 C6         -3.6387   -2.8829    5.3213 C.ar      1 <0>        -0.1261
      7 C7         -4.3494    3.5669   -5.0166 C.ar      1 <0>        -0.1009
      8 C8         -6.3522   -2.4224    5.9821 C.ar      1 <0>        -0.1004
      9 C9         -3.8838    0.9231   -2.5856 C.2       1 <0>         0.0849
     10 C10        -5.1110   -0.0470    3.5464 C.2       1 <0>         0.0824
     11 C11        -2.8730    2.8516   -3.1927 C.ar      1 <0>        -0.0700
     12 C12        -4.3396   -1.8216    4.7148 C.ar      1 <0>        -0.0695
     13 C13        -2.8353    1.7498   -2.3149 C.2       1 <0>        -0.3121
     14 C14        -4.0166   -0.8268    3.7704 C.2       1 <0>        -0.3108
     15 C15        -3.9886    2.6628   -4.0113 C.ar      1 <0>         0.0626
     16 C16        -5.6775   -1.6163    5.0585 C.ar      1 <0>         0.0622
     17 C17        -3.4142    0.2187    0.1554 C.3       1 <0>         0.0793
     18 C18        -0.9527   -0.0013    0.5399 C.3       1 <0>         0.0777
     19 C19        -3.6381   -1.1269    0.8216 C.3       1 <0>         0.0735
     20 C20        -1.1775   -1.3469    1.2061 C.3       1 <0>         0.0792
     21 C21        -1.8086    1.5140   -1.2466 C.3       1 <0>         0.2470
     22 C22        -2.6823   -0.6456    3.1086 C.3       1 <0>         0.2493
     23 N1         -4.5830    1.4842   -3.6203 N.pl3     1 <0>        -0.5192
     24 N2         -6.1200   -0.5324    4.3341 N.pl3     1 <0>        -0.5179
     25 N3         -2.0428    0.2454   -0.4742 N.4       1 <0>        -0.7137
     26 N4         -2.5509   -1.4196    1.8252 N.4       1 <0>        -0.7135
     27 H1         -1.8160    5.7976   -4.5390 H         1 <0>         0.1593
     28 H2         -3.7653   -4.5176    6.7174 H         1 <0>         0.1589
     29 H3         -3.7979    5.4188   -5.9610 H         1 <0>         0.1682
     30 H4         -6.1317   -4.1135    7.2925 H         1 <0>         0.1676
     31 H5         -1.2014    4.1793   -2.7680 H         1 <0>         0.1247
     32 H6         -2.5970   -3.0736    5.0795 H         1 <0>         0.1259
     33 H7         -5.2207    3.4016   -5.6415 H         1 <0>         0.1640
     34 H8         -7.3924   -2.2459    6.2349 H         1 <0>         0.1649
     35 H9         -4.2075   -0.0111   -2.1478 H         1 <0>         0.1783
     36 H10        -5.2785    0.8075    2.9053 H         1 <0>         0.1787
     37 H11        -4.1417    0.3801   -0.6468 H         1 <0>         0.1444
     38 H12        -3.4683    1.0500    0.8671 H         1 <0>         0.1211
     39 H13        -0.9738    0.8269    1.2569 H         1 <0>         0.1184
     40 H14        -0.0003    0.0096   -0.0000 H         1 <0>         0.1625
     41 H15        -4.5941   -1.1614    1.3542 H         1 <0>         0.1217
     42 H16        -3.6174   -1.9434    0.0908 H         1 <0>         0.1444
     43 H17        -1.1171   -2.1669    0.4815 H         1 <0>         0.1176
     44 H18        -0.4488   -1.5318    2.0021 H         1 <0>         0.1624
     45 H19        -0.8026    1.4412   -1.6735 H         1 <0>         0.1105
     46 H20        -1.8030    2.3304   -0.5164 H         1 <0>         0.1015
     47 H21        -2.5025    0.4062    2.8614 H         1 <0>         0.1098
     48 H22        -1.8685   -0.9787    3.7616 H         1 <0>         0.1013
     49 H23        -5.4153    1.0911   -4.0376 H         1 <0>         0.4881
     50 H24        -7.0550   -0.1512    4.3783 H         1 <0>         0.4882
     51 H25        -1.9940   -0.4842   -1.2050 H         1 <0>         0.4431
     52 H26        -2.6851   -2.4029    2.1217 H         1 <0>         0.4430
@<TRIPOS>BOND
     1    1    3 ar
     2    1    5 ar
     3    2    4 ar
     4    2    6 ar
     5    3    7 ar
     6    4    8 ar
     7    5   11 ar
     8    6   12 ar
     9    7   15 ar
    10    8   16 ar
    11    9   13 2
    12    9   23 1
    13   10   14 2
    14   10   24 1
    15   11   13 1
    16   11   15 ar
    17   12   14 1
    18   12   16 ar
    19   13   21 1
    20   14   22 1
    21   15   23 1
    22   16   24 1
    23   17   19 1
    24   17   25 1
    25   18   20 1
    26   18   25 1
    27   19   26 1
    28   20   26 1
    29   21   25 1
    30   22   26 1
    31    1   27 1
    32    2   28 1
    33    3   29 1
    34    4   30 1
    35    5   31 1
    36    6   32 1
    37    7   33 1
    38    8   34 1
    39    9   35 1
    40   10   36 1
    41   17   37 1
    42   17   38 1
    43   18   39 1
    44   18   40 1
    45   19   41 1
    46   19   42 1
    47   20   43 1
    48   20   44 1
    49   21   45 1
    50   21   46 1
    51   22   47 1
    52   22   48 1
    53   23   49 1
    54   24   50 1
    55   25   51 1
    56   26   52 1
@<TRIPOS>MOLECULE
ZINC00092235_56
   52    56     0     0     0
SMALL
USER_CHARGES

mmff94s_NoEstat = 76.29
@<TRIPOS>ATOM
      1 C1          0.3069    4.6647   -3.9635 C.ar      1 <0>        -0.0978
      2 C2         -2.6455   -3.8423    6.5091 C.ar      1 <0>        -0.0984
      3 C3          1.5612    4.2377   -4.3951 C.ar      1 <0>        -0.0943
      4 C4         -1.4520   -3.8395    7.2284 C.ar      1 <0>        -0.0957
      5 C5         -0.4807    3.8541   -3.1379 C.ar      1 <0>        -0.1265
      6 C6         -2.8442   -2.9519    5.4476 C.ar      1 <0>        -0.1261
      7 C7          2.0677    2.9910   -4.0171 C.ar      1 <0>        -0.1009
      8 C8         -0.4216   -2.9498    6.9115 C.ar      1 <0>        -0.1004
      9 C9          0.4389    0.5362   -1.9104 C.2       1 <0>         0.0849
     10 C10        -0.4351   -0.4647    4.2770 C.2       1 <0>         0.0824
     11 C11         0.0089    2.5929   -2.7439 C.ar      1 <0>        -0.0700
     12 C12        -1.8195   -2.0456    5.1098 C.ar      1 <0>        -0.0695
     13 C13        -0.4823    1.5392   -1.9474 C.2       1 <0>        -0.3121
     14 C14        -1.6635   -1.0370    4.1380 C.2       1 <0>        -0.3108
     15 C15         1.2692    2.1913   -3.1916 C.ar      1 <0>         0.0626
     16 C16        -0.6342   -2.0655    5.8480 C.ar      1 <0>         0.0622
     17 C17        -3.4142    0.2187    0.1554 C.3       1 <0>         0.0793
     18 C18        -0.9527   -0.0013    0.5399 C.3       1 <0>         0.0777
     19 C19        -3.6381   -1.1269    0.8216 C.3       1 <0>         0.0735
     20 C20        -1.1775   -1.3469    1.2061 C.3       1 <0>         0.0792
     21 C21        -1.8086    1.5140   -1.2466 C.3       1 <0>         0.2470
     22 C22        -2.6823   -0.6456    3.1086 C.3       1 <0>         0.2493
     23 N1          1.5043    0.9391   -2.6701 N.pl3     1 <0>        -0.5192
     24 N2          0.1879   -1.0955    5.3203 N.pl3     1 <0>        -0.5179
     25 N3         -2.0428    0.2454   -0.4742 N.4       1 <0>        -0.7137
     26 N4         -2.5509   -1.4196    1.8252 N.4       1 <0>        -0.7135
     27 H1         -0.0659    5.6378   -4.2708 H         1 <0>         0.1593
     28 H2         -3.4325   -4.5429    6.7743 H         1 <0>         0.1589
     29 H3          2.1565    4.8831   -5.0357 H         1 <0>         0.1682
     30 H4         -1.3186   -4.5395    8.0490 H         1 <0>         0.1676
     31 H5         -1.4563    4.2011   -2.8096 H         1 <0>         0.1247
     32 H6         -3.7801   -2.9664    4.8962 H         1 <0>         0.1259
     33 H7          3.0442    2.6598   -4.3542 H         1 <0>         0.1640
     34 H8          0.5069   -2.9486    7.4726 H         1 <0>         0.1649
     35 H9          0.4481   -0.4276   -1.4204 H         1 <0>         0.1783
     36 H10         0.0640    0.3300    3.7398 H         1 <0>         0.1787
     37 H11        -4.1417    0.3801   -0.6468 H         1 <0>         0.1444
     38 H12        -3.4683    1.0500    0.8671 H         1 <0>         0.1211
     39 H13        -0.9738    0.8269    1.2569 H         1 <0>         0.1184
     40 H14        -0.0003    0.0096   -0.0000 H         1 <0>         0.1625
     41 H15        -4.5941   -1.1614    1.3542 H         1 <0>         0.1217
     42 H16        -3.6174   -1.9434    0.0908 H         1 <0>         0.1444
     43 H17        -1.1171   -2.1669    0.4815 H         1 <0>         0.1176
     44 H18        -0.4488   -1.5318    2.0021 H         1 <0>         0.1624
     45 H19        -1.8939    2.3385   -0.5306 H         1 <0>         0.1105
     46 H20        -2.6347    1.6049   -1.9601 H         1 <0>         0.1015
     47 H21        -3.7006   -0.8146    3.4750 H         1 <0>         0.1098
     48 H22        -2.5934    0.4144    2.8472 H         1 <0>         0.1013
     49 H23         2.3425    0.3966   -2.8264 H         1 <0>         0.4881
     50 H24         1.1169   -0.8809    5.6557 H         1 <0>         0.4882
     51 H25        -1.9940   -0.4842   -1.2050 H         1 <0>         0.4431
     52 H26        -2.6851   -2.4029    2.1217 H         1 <0>         0.4430
@<TRIPOS>BOND
     1    1    3 ar
     2    1    5 ar
     3    2    4 ar
     4    2    6 ar
     5    3    7 ar
     6    4    8 ar
     7    5   11 ar
     8    6   12 ar
     9    7   15 ar
    10    8   16 ar
    11    9   13 2
    12    9   23 1
    13   10   14 2
    14   10   24 1
    15   11   13 1
    16   11   15 ar
    17   12   14 1
    18   12   16 ar
    19   13   21 1
    20   14   22 1
    21   15   23 1
    22   16   24 1
    23   17   19 1
    24   17   25 1
    25   18   20 1
    26   18   25 1
    27   19   26 1
    28   20   26 1
    29   21   25 1
    30   22   26 1
    31    1   27 1
    32    2   28 1
    33    3   29 1
    34    4   30 1
    35    5   31 1
    36    6   32 1
    37    7   33 1
    38    8   34 1
    39    9   35 1
    40   10   36 1
    41   17   37 1
    42   17   38 1
    43   18   39 1
    44   18   40 1
    45   19   41 1
    46   19   42 1
    47   20   43 1
    48   20   44 1
    49   21   45 1
    50   21   46 1
    51   22   47 1
    52   22   48 1
    53   23   49 1
    54   24   50 1
    55   25   51 1
    56   26   52 1
@<TRIPOS>MOLECULE
ZINC00092235_57
   52    56     0     0     0
SMALL
USER_CHARGES

mmff94s_NoEstat = 76.33
@<TRIPOS>ATOM
      1 C1         -2.4259    4.9114   -4.3867 C.ar      1 <0>        -0.0978
      2 C2         -2.6455   -3.8423    6.5091 C.ar      1 <0>        -0.0984
      3 C3         -3.5450    4.6970   -5.1888 C.ar      1 <0>        -0.0943
      4 C4         -1.4520   -3.8395    7.2284 C.ar      1 <0>        -0.0957
      5 C5         -2.0770    3.9983   -3.3850 C.ar      1 <0>        -0.1265
      6 C6         -2.8442   -2.9519    5.4476 C.ar      1 <0>        -0.1261
      7 C7         -4.3494    3.5669   -5.0166 C.ar      1 <0>        -0.1009
      8 C8         -0.4216   -2.9498    6.9115 C.ar      1 <0>        -0.1004
      9 C9         -3.8838    0.9231   -2.5856 C.2       1 <0>         0.0849
     10 C10        -0.4351   -0.4647    4.2770 C.2       1 <0>         0.0824
     11 C11        -2.8730    2.8516   -3.1927 C.ar      1 <0>        -0.0700
     12 C12        -1.8195   -2.0456    5.1098 C.ar      1 <0>        -0.0695
     13 C13        -2.8353    1.7498   -2.3149 C.2       1 <0>        -0.3121
     14 C14        -1.6635   -1.0370    4.1380 C.2       1 <0>        -0.3108
     15 C15        -3.9886    2.6628   -4.0113 C.ar      1 <0>         0.0626
     16 C16        -0.6342   -2.0655    5.8480 C.ar      1 <0>         0.0622
     17 C17        -3.4142    0.2187    0.1554 C.3       1 <0>         0.0793
     18 C18        -0.9527   -0.0013    0.5399 C.3       1 <0>         0.0777
     19 C19        -3.6381   -1.1269    0.8216 C.3       1 <0>         0.0735
     20 C20        -1.1775   -1.3469    1.2061 C.3       1 <0>         0.0792
     21 C21        -1.8086    1.5140   -1.2466 C.3       1 <0>         0.2470
     22 C22        -2.6823   -0.6456    3.1086 C.3       1 <0>         0.2493
     23 N1         -4.5830    1.4842   -3.6203 N.pl3     1 <0>        -0.5192
     24 N2          0.1879   -1.0955    5.3203 N.pl3     1 <0>        -0.5179
     25 N3         -2.0428    0.2454   -0.4742 N.4       1 <0>        -0.7137
     26 N4         -2.5509   -1.4196    1.8252 N.4       1 <0>        -0.7135
     27 H1         -1.8160    5.7976   -4.5390 H         1 <0>         0.1593
     28 H2         -3.4325   -4.5429    6.7743 H         1 <0>         0.1589
     29 H3         -3.7979    5.4188   -5.9610 H         1 <0>         0.1682
     30 H4         -1.3186   -4.5395    8.0490 H         1 <0>         0.1676
     31 H5         -1.2014    4.1793   -2.7680 H         1 <0>         0.1247
     32 H6         -3.7801   -2.9664    4.8962 H         1 <0>         0.1259
     33 H7         -5.2207    3.4016   -5.6415 H         1 <0>         0.1640
     34 H8          0.5069   -2.9486    7.4726 H         1 <0>         0.1649
     35 H9         -4.2075   -0.0111   -2.1478 H         1 <0>         0.1783
     36 H10         0.0640    0.3300    3.7398 H         1 <0>         0.1787
     37 H11        -4.1417    0.3801   -0.6468 H         1 <0>         0.1444
     38 H12        -3.4683    1.0500    0.8671 H         1 <0>         0.1211
     39 H13        -0.9738    0.8269    1.2569 H         1 <0>         0.1184
     40 H14        -0.0003    0.0096   -0.0000 H         1 <0>         0.1625
     41 H15        -4.5941   -1.1614    1.3542 H         1 <0>         0.1217
     42 H16        -3.6174   -1.9434    0.0908 H         1 <0>         0.1444
     43 H17        -1.1171   -2.1669    0.4815 H         1 <0>         0.1176
     44 H18        -0.4488   -1.5318    2.0021 H         1 <0>         0.1624
     45 H19        -0.8026    1.4412   -1.6735 H         1 <0>         0.1105
     46 H20        -1.8030    2.3304   -0.5164 H         1 <0>         0.1015
     47 H21        -3.7006   -0.8146    3.4750 H         1 <0>         0.1098
     48 H22        -2.5934    0.4144    2.8472 H         1 <0>         0.1013
     49 H23        -5.4153    1.0911   -4.0376 H         1 <0>         0.4881
     50 H24         1.1169   -0.8809    5.6557 H         1 <0>         0.4882
     51 H25        -1.9940   -0.4842   -1.2050 H         1 <0>         0.4431
     52 H26        -2.6851   -2.4029    2.1217 H         1 <0>         0.4430
@<TRIPOS>BOND
     1    1    3 ar
     2    1    5 ar
     3    2    4 ar
     4    2    6 ar
     5    3    7 ar
     6    4    8 ar
     7    5   11 ar
     8    6   12 ar
     9    7   15 ar
    10    8   16 ar
    11    9   13 2
    12    9   23 1
    13   10   14 2
    14   10   24 1
    15   11   13 1
    16   11   15 ar
    17   12   14 1
    18   12   16 ar
    19   13   21 1
    20   14   22 1
    21   15   23 1
    22   16   24 1
    23   17   19 1
    24   17   25 1
    25   18   20 1
    26   18   25 1
    27   19   26 1
    28   20   26 1
    29   21   25 1
    30   22   26 1
    31    1   27 1
    32    2   28 1
    33    3   29 1
    34    4   30 1
    35    5   31 1
    36    6   32 1
    37    7   33 1
    38    8   34 1
    39    9   35 1
    40   10   36 1
    41   17   37 1
    42   17   38 1
    43   18   39 1
    44   18   40 1
    45   19   41 1
    46   19   42 1
    47   20   43 1
    48   20   44 1
    49   21   45 1
    50   21   46 1
    51   22   47 1
    52   22   48 1
    53   23   49 1
    54   24   50 1
    55   25   51 1
    56   26   52 1
@<TRIPOS>MOLECULE
ZINC00092235_58
   52    56     0     0     0
SMALL
USER_CHARGES

mmff94s_NoEstat = 76.34
@<TRIPOS>ATOM
      1 C1          0.3069    4.6647   -3.9635 C.ar      1 <0>        -0.0978
      2 C2         -4.3008   -3.6975    6.2471 C.ar      1 <0>        -0.0984
      3 C3          1.5612    4.2377   -4.3951 C.ar      1 <0>        -0.0943
      4 C4         -5.6367   -3.4690    6.5709 C.ar      1 <0>        -0.0957
      5 C5         -0.4807    3.8541   -3.1379 C.ar      1 <0>        -0.1265
      6 C6         -3.6387   -2.8829    5.3213 C.ar      1 <0>        -0.1261
      7 C7          2.0677    2.9910   -4.0171 C.ar      1 <0>        -0.1009
      8 C8         -6.3522   -2.4224    5.9821 C.ar      1 <0>        -0.1004
      9 C9          0.4389    0.5362   -1.9104 C.2       1 <0>         0.0849
     10 C10        -5.1110   -0.0470    3.5464 C.2       1 <0>         0.0824
     11 C11         0.0089    2.5929   -2.7439 C.ar      1 <0>        -0.0700
     12 C12        -4.3396   -1.8216    4.7148 C.ar      1 <0>        -0.0695
     13 C13        -0.4823    1.5392   -1.9474 C.2       1 <0>        -0.3121
     14 C14        -4.0166   -0.8268    3.7704 C.2       1 <0>        -0.3108
     15 C15         1.2692    2.1913   -3.1916 C.ar      1 <0>         0.0626
     16 C16        -5.6775   -1.6163    5.0585 C.ar      1 <0>         0.0622
     17 C17        -3.4142    0.2187    0.1554 C.3       1 <0>         0.0793
     18 C18        -0.9527   -0.0013    0.5399 C.3       1 <0>         0.0777
     19 C19        -3.6381   -1.1269    0.8216 C.3       1 <0>         0.0735
     20 C20        -1.1775   -1.3469    1.2061 C.3       1 <0>         0.0792
     21 C21        -1.8086    1.5140   -1.2466 C.3       1 <0>         0.2470
     22 C22        -2.6823   -0.6456    3.1086 C.3       1 <0>         0.2493
     23 N1          1.5043    0.9391   -2.6701 N.pl3     1 <0>        -0.5192
     24 N2         -6.1200   -0.5324    4.3341 N.pl3     1 <0>        -0.5179
     25 N3         -2.0428    0.2454   -0.4742 N.4       1 <0>        -0.7137
     26 N4         -2.5509   -1.4196    1.8252 N.4       1 <0>        -0.7135
     27 H1         -0.0659    5.6378   -4.2708 H         1 <0>         0.1593
     28 H2         -3.7653   -4.5176    6.7174 H         1 <0>         0.1589
     29 H3          2.1565    4.8831   -5.0357 H         1 <0>         0.1682
     30 H4         -6.1317   -4.1135    7.2925 H         1 <0>         0.1676
     31 H5         -1.4563    4.2011   -2.8096 H         1 <0>         0.1247
     32 H6         -2.5970   -3.0736    5.0795 H         1 <0>         0.1259
     33 H7          3.0442    2.6598   -4.3542 H         1 <0>         0.1640
     34 H8         -7.3924   -2.2459    6.2349 H         1 <0>         0.1649
     35 H9          0.4481   -0.4276   -1.4204 H         1 <0>         0.1783
     36 H10        -5.2785    0.8075    2.9053 H         1 <0>         0.1787
     37 H11        -4.1417    0.3801   -0.6468 H         1 <0>         0.1444
     38 H12        -3.4683    1.0500    0.8671 H         1 <0>         0.1211
     39 H13        -0.9738    0.8269    1.2569 H         1 <0>         0.1184
     40 H14        -0.0003    0.0096   -0.0000 H         1 <0>         0.1625
     41 H15        -4.5941   -1.1614    1.3542 H         1 <0>         0.1217
     42 H16        -3.6174   -1.9434    0.0908 H         1 <0>         0.1444
     43 H17        -1.1171   -2.1669    0.4815 H         1 <0>         0.1176
     44 H18        -0.4488   -1.5318    2.0021 H         1 <0>         0.1624
     45 H19        -1.8939    2.3385   -0.5306 H         1 <0>         0.1105
     46 H20        -2.6347    1.6049   -1.9601 H         1 <0>         0.1015
     47 H21        -2.5025    0.4062    2.8614 H         1 <0>         0.1098
     48 H22        -1.8685   -0.9787    3.7616 H         1 <0>         0.1013
     49 H23         2.3425    0.3966   -2.8264 H         1 <0>         0.4881
     50 H24        -7.0550   -0.1512    4.3783 H         1 <0>         0.4882
     51 H25        -1.9940   -0.4842   -1.2050 H         1 <0>         0.4431
     52 H26        -2.6851   -2.4029    2.1217 H         1 <0>         0.4430
@<TRIPOS>BOND
     1    1    3 ar
     2    1    5 ar
     3    2    4 ar
     4    2    6 ar
     5    3    7 ar
     6    4    8 ar
     7    5   11 ar
     8    6   12 ar
     9    7   15 ar
    10    8   16 ar
    11    9   13 2
    12    9   23 1
    13   10   14 2
    14   10   24 1
    15   11   13 1
    16   11   15 ar
    17   12   14 1
    18   12   16 ar
    19   13   21 1
    20   14   22 1
    21   15   23 1
    22   16   24 1
    23   17   19 1
    24   17   25 1
    25   18   20 1
    26   18   25 1
    27   19   26 1
    28   20   26 1
    29   21   25 1
    30   22   26 1
    31    1   27 1
    32    2   28 1
    33    3   29 1
    34    4   30 1
    35    5   31 1
    36    6   32 1
    37    7   33 1
    38    8   34 1
    39    9   35 1
    40   10   36 1
    41   17   37 1
    42   17   38 1
    43   18   39 1
    44   18   40 1
    45   19   41 1
    46   19   42 1
    47   20   43 1
    48   20   44 1
    49   21   45 1
    50   21   46 1
    51   22   47 1
    52   22   48 1
    53   23   49 1
    54   24   50 1
    55   25   51 1
    56   26   52 1
@<TRIPOS>MOLECULE
ZINC00092235_59
   52    56     0     0     0
SMALL
USER_CHARGES

mmff94s_NoEstat = 76.87
@<TRIPOS>ATOM
      1 C1          3.8714   -4.3810   -1.2505 C.ar      1 <0>        -0.0978
      2 C2         -5.7726   -5.4267   -3.5184 C.ar      1 <0>        -0.0984
      3 C3          5.1318   -4.5097   -1.8306 C.ar      1 <0>        -0.0943
      4 C4         -5.3512   -6.5598   -2.8254 C.ar      1 <0>        -0.0957
      5 C5          3.2458   -3.1318   -1.1662 C.ar      1 <0>        -0.1265
      6 C6         -4.9812   -4.2728   -3.5535 C.ar      1 <0>        -0.1261
      7 C7          5.8061   -3.3980   -2.3437 C.ar      1 <0>        -0.1009
      8 C8         -4.1291   -6.5767   -2.1470 C.ar      1 <0>        -0.1004
      9 C9          4.6327    0.0282   -2.3710 C.2       1 <0>         0.0849
     10 C10        -1.7308   -3.8716   -1.9304 C.2       1 <0>         0.0824
     11 C11         3.9063   -1.9966   -1.6766 C.ar      1 <0>        -0.0700
     12 C12        -3.7452   -4.2664   -2.8770 C.ar      1 <0>        -0.0695
     13 C13         3.6006   -0.6238   -1.7663 C.2       1 <0>        -0.3121
     14 C14        -2.7150   -3.3221   -2.6954 C.2       1 <0>        -0.3108
     15 C15         5.1686   -2.1556   -2.2525 C.ar      1 <0>         0.0626
     16 C16        -3.3485   -5.4161   -2.1907 C.ar      1 <0>         0.0622
     17 C17         0.9917   -0.9303   -3.1418 C.3       1 <0>         0.0793
     18 C18        -0.1424   -0.0915   -1.0817 C.3       1 <0>         0.0777
     19 C19        -0.2112   -1.8040   -3.4486 C.3       1 <0>         0.0735
     20 C20        -1.3452   -0.9655   -1.3875 C.3       1 <0>         0.0792
     21 C21         2.3415    0.0283   -1.2761 C.3       1 <0>         0.2470
     22 C22        -2.6944   -1.9286   -3.2510 C.3       1 <0>         0.2493
     23 N1          5.5853   -0.9101   -2.6653 N.pl3     1 <0>        -0.5192
     24 N2         -2.1220   -5.1479   -1.6259 N.pl3     1 <0>        -0.5179
     25 N3          1.1000   -0.7329   -1.6495 N.4       1 <0>        -0.7137
     26 N4         -1.4541   -1.1645   -2.8795 N.4       1 <0>        -0.7135
     27 H1          3.3669   -5.2596   -0.8579 H         1 <0>         0.1593
     28 H2         -6.7269   -5.4370   -4.0379 H         1 <0>         0.1589
     29 H3          5.5995   -5.4893   -1.8859 H         1 <0>         0.1682
     30 H4         -5.9812   -7.4452   -2.8111 H         1 <0>         0.1676
     31 H5          2.2630   -3.0477   -0.7113 H         1 <0>         0.1247
     32 H6         -5.3234   -3.3976   -4.0983 H         1 <0>         0.1259
     33 H7          6.7875   -3.4997   -2.7947 H         1 <0>         0.1640
     34 H8         -3.8025   -7.4595   -1.6075 H         1 <0>         0.1649
     35 H9          4.7901    1.0676   -2.6242 H         1 <0>         0.1783
     36 H10        -0.7876   -3.4861   -1.5685 H         1 <0>         0.1787
     37 H11         1.9168   -1.4131   -3.4726 H         1 <0>         0.1444
     38 H12         0.9112    0.0608   -3.6025 H         1 <0>         0.1211
     39 H13        -0.2330    0.9061   -1.5261 H         1 <0>         0.1184
     40 H14         0.0058    0.0018   -0.0008 H         1 <0>         0.1625
     41 H15        -0.3596   -1.8946   -4.5294 H         1 <0>         0.1217
     42 H16        -0.1203   -2.8031   -3.0074 H         1 <0>         0.1444
     43 H17        -1.2640   -1.9562   -0.9260 H         1 <0>         0.1176
     44 H18        -2.2707   -0.4835   -1.0562 H         1 <0>         0.1624
     45 H19         2.3402    0.1161   -0.1844 H         1 <0>         0.1105
     46 H20         2.2300    1.0355   -1.6920 H         1 <0>         0.1015
     47 H21        -2.7422   -1.9378   -4.3452 H         1 <0>         0.1098
     48 H22        -3.5454   -1.3442   -2.8848 H         1 <0>         0.1013
     49 H23         6.4672   -0.7175   -3.1198 H         1 <0>         0.4881
     50 H24        -1.5885   -5.7996   -1.0673 H         1 <0>         0.4882
     51 H25         1.2452   -1.6500   -1.1961 H         1 <0>         0.4431
     52 H26        -1.6017   -0.2480   -3.3335 H         1 <0>         0.4430
@<TRIPOS>BOND
     1    1    3 ar
     2    1    5 ar
     3    2    4 ar
     4    2    6 ar
     5    3    7 ar
     6    4    8 ar
     7    5   11 ar
     8    6   12 ar
     9    7   15 ar
    10    8   16 ar
    11    9   13 2
    12    9   23 1
    13   10   14 2
    14   10   24 1
    15   11   13 1
    16   11   15 ar
    17   12   14 1
    18   12   16 ar
    19   13   21 1
    20   14   22 1
    21   15   23 1
    22   16   24 1
    23   17   19 1
    24   17   25 1
    25   18   20 1
    26   18   25 1
    27   19   26 1
    28   20   26 1
    29   21   25 1
    30   22   26 1
    31    1   27 1
    32    2   28 1
    33    3   29 1
    34    4   30 1
    35    5   31 1
    36    6   32 1
    37    7   33 1
    38    8   34 1
    39    9   35 1
    40   10   36 1
    41   17   37 1
    42   17   38 1
    43   18   39 1
    44   18   40 1
    45   19   41 1
    46   19   42 1
    47   20   43 1
    48   20   44 1
    49   21   45 1
    50   21   46 1
    51   22   47 1
    52   22   48 1
    53   23   49 1
    54   24   50 1
    55   25   51 1
    56   26   52 1
@<TRIPOS>MOLECULE
ZINC00092235_60
   52    56     0     0     0
SMALL
USER_CHARGES

mmff94s_NoEstat = 76.89
@<TRIPOS>ATOM
      1 C1          1.9091   -2.9315    2.3066 C.ar      1 <0>        -0.0978
      2 C2         -5.7726   -5.4267   -3.5184 C.ar      1 <0>        -0.0984
      3 C3          2.1751   -2.3247    3.5325 C.ar      1 <0>        -0.0943
      4 C4         -5.3512   -6.5598   -2.8254 C.ar      1 <0>        -0.0957
      5 C5          1.9878   -2.2025    1.1144 C.ar      1 <0>        -0.1265
      6 C6         -4.9812   -4.2728   -3.5535 C.ar      1 <0>        -0.1261
      7 C7          2.5273   -0.9741    3.6068 C.ar      1 <0>        -0.1009
      8 C8         -4.1291   -6.5767   -2.1470 C.ar      1 <0>        -0.1004
      9 C9          2.8669    1.3346    0.8371 C.2       1 <0>         0.0849
     10 C10        -1.7308   -3.8716   -1.9304 C.2       1 <0>         0.0824
     11 C11         2.3409   -0.8393    1.1645 C.ar      1 <0>        -0.0700
     12 C12        -3.7452   -4.2664   -2.8770 C.ar      1 <0>        -0.0695
     13 C13         2.5148    0.1795    0.2065 C.2       1 <0>        -0.3121
     14 C14        -2.7150   -3.3221   -2.6954 C.2       1 <0>        -0.3108
     15 C15         2.6020   -0.2577    2.4070 C.ar      1 <0>         0.0626
     16 C16        -3.3485   -5.4161   -2.1907 C.ar      1 <0>         0.0622
     17 C17         0.9917   -0.9303   -3.1418 C.3       1 <0>         0.0793
     18 C18        -0.1424   -0.0915   -1.0817 C.3       1 <0>         0.0777
     19 C19        -0.2112   -1.8040   -3.4486 C.3       1 <0>         0.0735
     20 C20        -1.3452   -0.9655   -1.3875 C.3       1 <0>         0.0792
     21 C21         2.3415    0.0283   -1.2761 C.3       1 <0>         0.2470
     22 C22        -2.6944   -1.9286   -3.2510 C.3       1 <0>         0.2493
     23 N1          2.9188    1.0623    2.1779 N.pl3     1 <0>        -0.5192
     24 N2         -2.1220   -5.1479   -1.6259 N.pl3     1 <0>        -0.5179
     25 N3          1.1000   -0.7329   -1.6495 N.4       1 <0>        -0.7137
     26 N4         -1.4541   -1.1645   -2.8795 N.4       1 <0>        -0.7135
     27 H1          1.6367   -3.9828    2.2739 H         1 <0>         0.1593
     28 H2         -6.7269   -5.4370   -4.0379 H         1 <0>         0.1589
     29 H3          2.1083   -2.9094    4.4462 H         1 <0>         0.1682
     30 H4         -5.9812   -7.4452   -2.8111 H         1 <0>         0.1676
     31 H5          1.7777   -2.6897    0.1666 H         1 <0>         0.1247
     32 H6         -5.3234   -3.3976   -4.0983 H         1 <0>         0.1259
     33 H7          2.7338   -0.5029    4.5620 H         1 <0>         0.1640
     34 H8         -3.8025   -7.4595   -1.6075 H         1 <0>         0.1649
     35 H9          3.0871    2.3276    0.4703 H         1 <0>         0.1783
     36 H10        -0.7876   -3.4861   -1.5685 H         1 <0>         0.1787
     37 H11         1.9168   -1.4131   -3.4726 H         1 <0>         0.1444
     38 H12         0.9112    0.0608   -3.6025 H         1 <0>         0.1211
     39 H13        -0.2330    0.9061   -1.5261 H         1 <0>         0.1184
     40 H14         0.0058    0.0018   -0.0008 H         1 <0>         0.1625
     41 H15        -0.3596   -1.8946   -4.5294 H         1 <0>         0.1217
     42 H16        -0.1203   -2.8031   -3.0074 H         1 <0>         0.1444
     43 H17        -1.2640   -1.9562   -0.9260 H         1 <0>         0.1176
     44 H18        -2.2707   -0.4835   -1.0562 H         1 <0>         0.1624
     45 H19         2.2719    1.0044   -1.7682 H         1 <0>         0.1105
     46 H20         3.1859   -0.5098   -1.7202 H         1 <0>         0.1015
     47 H21        -2.7422   -1.9378   -4.3452 H         1 <0>         0.1098
     48 H22        -3.5454   -1.3442   -2.8848 H         1 <0>         0.1013
     49 H23         3.1552    1.7325    2.8965 H         1 <0>         0.4881
     50 H24        -1.5885   -5.7996   -1.0673 H         1 <0>         0.4882
     51 H25         1.2452   -1.6500   -1.1961 H         1 <0>         0.4431
     52 H26        -1.6017   -0.2480   -3.3335 H         1 <0>         0.4430
@<TRIPOS>BOND
     1    1    3 ar
     2    1    5 ar
     3    2    4 ar
     4    2    6 ar
     5    3    7 ar
     6    4    8 ar
     7    5   11 ar
     8    6   12 ar
     9    7   15 ar
    10    8   16 ar
    11    9   13 2
    12    9   23 1
    13   10   14 2
    14   10   24 1
    15   11   13 1
    16   11   15 ar
    17   12   14 1
    18   12   16 ar
    19   13   21 1
    20   14   22 1
    21   15   23 1
    22   16   24 1
    23   17   19 1
    24   17   25 1
    25   18   20 1
    26   18   25 1
    27   19   26 1
    28   20   26 1
    29   21   25 1
    30   22   26 1
    31    1   27 1
    32    2   28 1
    33    3   29 1
    34    4   30 1
    35    5   31 1
    36    6   32 1
    37    7   33 1
    38    8   34 1
    39    9   35 1
    40   10   36 1
    41   17   37 1
    42   17   38 1
    43   18   39 1
    44   18   40 1
    45   19   41 1
    46   19   42 1
    47   20   43 1
    48   20   44 1
    49   21   45 1
    50   21   46 1
    51   22   47 1
    52   22   48 1
    53   23   49 1
    54   24   50 1
    55   25   51 1
    56   26   52 1
@<TRIPOS>MOLECULE
ZINC00092235_61
   52    56     0     0     0
SMALL
USER_CHARGES

mmff94s_NoEstat = 77.55
@<TRIPOS>ATOM
      1 C1         -1.2590    6.0609   -2.1450 C.ar      1 <0>        -0.0978
      2 C2         -4.3008   -3.6975    6.2471 C.ar      1 <0>        -0.0984
      3 C3         -1.3675    6.8461   -0.9990 C.ar      1 <0>        -0.0943
      4 C4         -5.6367   -3.4690    6.5709 C.ar      1 <0>        -0.0957
      5 C5         -1.3952    4.6697   -2.0757 C.ar      1 <0>        -0.1265
      6 C6         -3.6387   -2.8829    5.3213 C.ar      1 <0>        -0.1261
      7 C7         -1.6149    6.2686    0.2497 C.ar      1 <0>        -0.1009
      8 C8         -6.3522   -2.4224    5.9821 C.ar      1 <0>        -0.1004
      9 C9         -2.0436    2.7438    0.9626 C.2       1 <0>         0.0849
     10 C10        -5.1110   -0.0470    3.5464 C.2       1 <0>         0.0824
     11 C11        -1.6449    4.0649   -0.8277 C.ar      1 <0>        -0.0700
     12 C12        -4.3396   -1.8216    4.7148 C.ar      1 <0>        -0.0695
     13 C13        -1.8337    2.7409   -0.3834 C.2       1 <0>        -0.3121
     14 C14        -4.0166   -0.8268    3.7704 C.2       1 <0>        -0.3108
     15 C15        -1.7488    4.8767    0.3038 C.ar      1 <0>         0.0626
     16 C16        -5.6775   -1.6163    5.0585 C.ar      1 <0>         0.0622
     17 C17        -3.4142    0.2187    0.1554 C.3       1 <0>         0.0793
     18 C18        -0.9527   -0.0013    0.5399 C.3       1 <0>         0.0777
     19 C19        -3.6381   -1.1269    0.8216 C.3       1 <0>         0.0735
     20 C20        -1.1775   -1.3469    1.2061 C.3       1 <0>         0.0792
     21 C21        -1.8086    1.5140   -1.2466 C.3       1 <0>         0.2470
     22 C22        -2.6823   -0.6456    3.1086 C.3       1 <0>         0.2493
     23 N1         -1.9911    4.0480    1.3761 N.pl3     1 <0>        -0.5192
     24 N2         -6.1200   -0.5324    4.3341 N.pl3     1 <0>        -0.5179
     25 N3         -2.0428    0.2454   -0.4742 N.4       1 <0>        -0.7137
     26 N4         -2.5509   -1.4196    1.8252 N.4       1 <0>        -0.7135
     27 H1         -1.0658    6.5325   -3.1047 H         1 <0>         0.1593
     28 H2         -3.7653   -4.5176    6.7174 H         1 <0>         0.1589
     29 H3         -1.2585    7.9248   -1.0754 H         1 <0>         0.1682
     30 H4         -6.1317   -4.1135    7.2925 H         1 <0>         0.1676
     31 H5         -1.3082    4.0712   -2.9780 H         1 <0>         0.1247
     32 H6         -2.5970   -3.0736    5.0795 H         1 <0>         0.1259
     33 H7         -1.6988    6.8812    1.1411 H         1 <0>         0.1640
     34 H8         -7.3924   -2.2459    6.2349 H         1 <0>         0.1649
     35 H9         -2.2259    1.9500    1.6738 H         1 <0>         0.1783
     36 H10        -5.2785    0.8075    2.9053 H         1 <0>         0.1787
     37 H11        -4.1417    0.3801   -0.6468 H         1 <0>         0.1444
     38 H12        -3.4683    1.0500    0.8671 H         1 <0>         0.1211
     39 H13        -0.9738    0.8269    1.2569 H         1 <0>         0.1184
     40 H14        -0.0003    0.0096   -0.0000 H         1 <0>         0.1625
     41 H15        -4.5941   -1.1614    1.3542 H         1 <0>         0.1217
     42 H16        -3.6174   -1.9434    0.0908 H         1 <0>         0.1444
     43 H17        -1.1171   -2.1669    0.4815 H         1 <0>         0.1176
     44 H18        -0.4488   -1.5318    2.0021 H         1 <0>         0.1624
     45 H19        -2.5825    1.5585   -2.0204 H         1 <0>         0.1105
     46 H20        -0.8412    1.4029   -1.7481 H         1 <0>         0.1015
     47 H21        -2.5025    0.4062    2.8614 H         1 <0>         0.1098
     48 H22        -1.8685   -0.9787    3.7616 H         1 <0>         0.1013
     49 H23        -2.1124    4.3586    2.3301 H         1 <0>         0.4881
     50 H24        -7.0550   -0.1512    4.3783 H         1 <0>         0.4882
     51 H25        -1.9940   -0.4842   -1.2050 H         1 <0>         0.4431
     52 H26        -2.6851   -2.4029    2.1217 H         1 <0>         0.4430
@<TRIPOS>BOND
     1    1    3 ar
     2    1    5 ar
     3    2    4 ar
     4    2    6 ar
     5    3    7 ar
     6    4    8 ar
     7    5   11 ar
     8    6   12 ar
     9    7   15 ar
    10    8   16 ar
    11    9   13 2
    12    9   23 1
    13   10   14 2
    14   10   24 1
    15   11   13 1
    16   11   15 ar
    17   12   14 1
    18   12   16 ar
    19   13   21 1
    20   14   22 1
    21   15   23 1
    22   16   24 1
    23   17   19 1
    24   17   25 1
    25   18   20 1
    26   18   25 1
    27   19   26 1
    28   20   26 1
    29   21   25 1
    30   22   26 1
    31    1   27 1
    32    2   28 1
    33    3   29 1
    34    4   30 1
    35    5   31 1
    36    6   32 1
    37    7   33 1
    38    8   34 1
    39    9   35 1
    40   10   36 1
    41   17   37 1
    42   17   38 1
    43   18   39 1
    44   18   40 1
    45   19   41 1
    46   19   42 1
    47   20   43 1
    48   20   44 1
    49   21   45 1
    50   21   46 1
    51   22   47 1
    52   22   48 1
    53   23   49 1
    54   24   50 1
    55   25   51 1
    56   26   52 1
@<TRIPOS>MOLECULE
ZINC00092235_62
   52    56     0     0     0
SMALL
USER_CHARGES

mmff94s_NoEstat = 77.55
@<TRIPOS>ATOM
      1 C1         -1.2590    6.0609   -2.1450 C.ar      1 <0>        -0.0978
      2 C2         -2.6455   -3.8423    6.5091 C.ar      1 <0>        -0.0984
      3 C3         -1.3675    6.8461   -0.9990 C.ar      1 <0>        -0.0943
      4 C4         -1.4520   -3.8395    7.2284 C.ar      1 <0>        -0.0957
      5 C5         -1.3952    4.6697   -2.0757 C.ar      1 <0>        -0.1265
      6 C6         -2.8442   -2.9519    5.4476 C.ar      1 <0>        -0.1261
      7 C7         -1.6149    6.2686    0.2497 C.ar      1 <0>        -0.1009
      8 C8         -0.4216   -2.9498    6.9115 C.ar      1 <0>        -0.1004
      9 C9         -2.0436    2.7438    0.9626 C.2       1 <0>         0.0849
     10 C10        -0.4351   -0.4647    4.2770 C.2       1 <0>         0.0824
     11 C11        -1.6449    4.0649   -0.8277 C.ar      1 <0>        -0.0700
     12 C12        -1.8195   -2.0456    5.1098 C.ar      1 <0>        -0.0695
     13 C13        -1.8337    2.7409   -0.3834 C.2       1 <0>        -0.3121
     14 C14        -1.6635   -1.0370    4.1380 C.2       1 <0>        -0.3108
     15 C15        -1.7488    4.8767    0.3038 C.ar      1 <0>         0.0626
     16 C16        -0.6342   -2.0655    5.8480 C.ar      1 <0>         0.0622
     17 C17        -3.4142    0.2187    0.1554 C.3       1 <0>         0.0793
     18 C18        -0.9527   -0.0013    0.5399 C.3       1 <0>         0.0777
     19 C19        -3.6381   -1.1269    0.8216 C.3       1 <0>         0.0735
     20 C20        -1.1775   -1.3469    1.2061 C.3       1 <0>         0.0792
     21 C21        -1.8086    1.5140   -1.2466 C.3       1 <0>         0.2470
     22 C22        -2.6823   -0.6456    3.1086 C.3       1 <0>         0.2493
     23 N1         -1.9911    4.0480    1.3761 N.pl3     1 <0>        -0.5192
     24 N2          0.1879   -1.0955    5.3203 N.pl3     1 <0>        -0.5179
     25 N3         -2.0428    0.2454   -0.4742 N.4       1 <0>        -0.7137
     26 N4         -2.5509   -1.4196    1.8252 N.4       1 <0>        -0.7135
     27 H1         -1.0658    6.5325   -3.1047 H         1 <0>         0.1593
     28 H2         -3.4325   -4.5429    6.7743 H         1 <0>         0.1589
     29 H3         -1.2585    7.9248   -1.0754 H         1 <0>         0.1682
     30 H4         -1.3186   -4.5395    8.0490 H         1 <0>         0.1676
     31 H5         -1.3082    4.0712   -2.9780 H         1 <0>         0.1247
     32 H6         -3.7801   -2.9664    4.8962 H         1 <0>         0.1259
     33 H7         -1.6988    6.8812    1.1411 H         1 <0>         0.1640
     34 H8          0.5069   -2.9486    7.4726 H         1 <0>         0.1649
     35 H9         -2.2259    1.9500    1.6738 H         1 <0>         0.1783
     36 H10         0.0640    0.3300    3.7398 H         1 <0>         0.1787
     37 H11        -4.1417    0.3801   -0.6468 H         1 <0>         0.1444
     38 H12        -3.4683    1.0500    0.8671 H         1 <0>         0.1211
     39 H13        -0.9738    0.8269    1.2569 H         1 <0>         0.1184
     40 H14        -0.0003    0.0096   -0.0000 H         1 <0>         0.1625
     41 H15        -4.5941   -1.1614    1.3542 H         1 <0>         0.1217
     42 H16        -3.6174   -1.9434    0.0908 H         1 <0>         0.1444
     43 H17        -1.1171   -2.1669    0.4815 H         1 <0>         0.1176
     44 H18        -0.4488   -1.5318    2.0021 H         1 <0>         0.1624
     45 H19        -2.5825    1.5585   -2.0204 H         1 <0>         0.1105
     46 H20        -0.8412    1.4029   -1.7481 H         1 <0>         0.1015
     47 H21        -3.7006   -0.8146    3.4750 H         1 <0>         0.1098
     48 H22        -2.5934    0.4144    2.8472 H         1 <0>         0.1013
     49 H23        -2.1124    4.3586    2.3301 H         1 <0>         0.4881
     50 H24         1.1169   -0.8809    5.6557 H         1 <0>         0.4882
     51 H25        -1.9940   -0.4842   -1.2050 H         1 <0>         0.4431
     52 H26        -2.6851   -2.4029    2.1217 H         1 <0>         0.4430
@<TRIPOS>BOND
     1    1    3 ar
     2    1    5 ar
     3    2    4 ar
     4    2    6 ar
     5    3    7 ar
     6    4    8 ar
     7    5   11 ar
     8    6   12 ar
     9    7   15 ar
    10    8   16 ar
    11    9   13 2
    12    9   23 1
    13   10   14 2
    14   10   24 1
    15   11   13 1
    16   11   15 ar
    17   12   14 1
    18   12   16 ar
    19   13   21 1
    20   14   22 1
    21   15   23 1
    22   16   24 1
    23   17   19 1
    24   17   25 1
    25   18   20 1
    26   18   25 1
    27   19   26 1
    28   20   26 1
    29   21   25 1
    30   22   26 1
    31    1   27 1
    32    2   28 1
    33    3   29 1
    34    4   30 1
    35    5   31 1
    36    6   32 1
    37    7   33 1
    38    8   34 1
    39    9   35 1
    40   10   36 1
    41   17   37 1
    42   17   38 1
    43   18   39 1
    44   18   40 1
    45   19   41 1
    46   19   42 1
    47   20   43 1
    48   20   44 1
    49   21   45 1
    50   21   46 1
    51   22   47 1
    52   22   48 1
    53   23   49 1
    54   24   50 1
    55   25   51 1
    56   26   52 1
