@<TRIPOS>MOLECULE
ZINC00000025_0
   38    39     0     0     0
SMALL
USER_CHARGES

@<TRIPOS>ATOM
      1 C1          2.6781   -2.7712    0.6466 C.1       1 <0>         0.1289
      2 C2          4.9104   -8.4267    3.3601 C.ar      1 <0>        -0.1028
      3 C3          5.4446   -3.5260    4.8281 C.ar      1 <0>        -0.0781
      4 C4          6.0893   -7.7060    3.1818 C.ar      1 <0>        -0.1161
      5 C5          3.9917   -8.5265    2.3172 C.ar      1 <0>        -0.1169
      6 C6          6.0542   -2.6256    3.9575 C.ar      1 <0>        -0.1171
      7 C7          4.3868   -4.3148    4.3831 C.ar      1 <0>        -0.1122
      8 C8          6.3485   -7.0808    1.9613 C.ar      1 <0>        -0.1150
      9 C9          4.2487   -7.9019    1.0956 C.ar      1 <0>        -0.1400
     10 C10         5.6090   -2.5146    2.6388 C.ar      1 <0>        -0.0911
     11 C11         3.9385   -4.2061    3.0657 C.ar      1 <0>        -0.1050
     12 C12         5.4274   -7.1672    0.9076 C.ar      1 <0>        -0.1526
     13 C13         4.5467   -3.3059    2.1734 C.ar      1 <0>        -0.1755
     14 C14         6.1252   -4.2843   -1.5933 C.3       1 <0>        -0.1328
     15 C15         5.6939   -6.4661   -0.4046 C.3       1 <0>        -0.0609
     16 C16         4.0896   -3.1906    0.7224 C.3       1 <0>         0.2890
     17 C17         5.6543   -4.9322   -0.2886 C.3       1 <0>         0.1398
     18 N1          1.5653   -2.4503    0.5732 N.1       1 <0>        -0.2253
     19 N2          4.2441   -4.4977   -0.0115 N.4       1 <0>        -0.7833
     20 H1          4.7091   -8.9131    4.3103 H         1 <0>         0.1556
     21 H2          5.7931   -3.6118    5.8534 H         1 <0>         0.1621
     22 H3          6.8072   -7.6300    3.9935 H         1 <0>         0.1522
     23 H4          3.0743   -9.0919    2.4550 H         1 <0>         0.1539
     24 H5          6.8788   -2.0093    4.3051 H         1 <0>         0.1625
     25 H6          3.9107   -5.0171    5.0617 H         1 <0>         0.1602
     26 H7          7.2740   -6.5231    1.8405 H         1 <0>         0.1370
     27 H8          3.5190   -7.9910    0.2945 H         1 <0>         0.1330
     28 H9          6.1047   -1.8073    1.9779 H         1 <0>         0.1444
     29 H10         3.1112   -4.8351    2.7457 H         1 <0>         0.1342
     30 H11         7.1542   -4.5830   -1.8203 H         1 <0>         0.0991
     31 H12         5.4954   -4.5818   -2.4389 H         1 <0>         0.0689
     32 H13         6.1059   -3.1921   -1.5243 H         1 <0>         0.0635
     33 H14         4.9803   -6.8064   -1.1666 H         1 <0>         0.0724
     34 H15         6.6829   -6.7868   -0.7581 H         1 <0>         0.1060
     35 H16         4.7148   -2.4234    0.2355 H         1 <0>         0.1307
     36 H17         6.3282   -4.5905    0.5121 H         1 <0>         0.1187
     37 H18         3.7327   -4.4507   -0.9047 H         1 <0>         0.4473
     38 H19         3.7550   -5.2248    0.5275 H         1 <0>         0.4653
@<TRIPOS>BOND
     1    1   16 1
     2    1   18 3
     3    2    4 ar
     4    2    5 ar
     5    3    6 ar
     6    3    7 ar
     7    4    8 ar
     8    5    9 ar
     9    6   10 ar
    10    7   11 ar
    11    8   12 ar
    12    9   12 ar
    13   10   13 ar
    14   11   13 ar
    15   12   15 1
    16   13   16 1
    17   14   17 1
    18   15   17 1
    19   16   19 1
    20   17   19 1
    21    2   20 1
    22    3   21 1
    23    4   22 1
    24    5   23 1
    25    6   24 1
    26    7   25 1
    27    8   26 1
    28    9   27 1
    29   10   28 1
    30   11   29 1
    31   14   30 1
    32   14   31 1
    33   14   32 1
    34   15   33 1
    35   15   34 1
    36   16   35 1
    37   17   36 1
    38   19   37 1
    39   19   38 1
@<TRIPOS>MOLECULE
ZINC00000025_1
   38    39     0     0     0
SMALL
USER_CHARGES

mmff94s_NoEstat = 52.05
@<TRIPOS>ATOM
      1 C1          2.7736   -2.0433   -3.5054 C.1       1 <0>         0.1289
      2 C2          4.1404    3.5928    0.3974 C.ar      1 <0>        -0.1028
      3 C3         -1.0607   -3.8235   -6.2246 C.ar      1 <0>        -0.0781
      4 C4          2.7760    3.4772    0.6630 C.ar      1 <0>        -0.1161
      5 C5          4.7188    2.8376   -0.6228 C.ar      1 <0>        -0.1169
      6 C6         -0.3108   -2.7638   -6.7348 C.ar      1 <0>        -0.1171
      7 C7         -1.0052   -4.1258   -4.8639 C.ar      1 <0>        -0.1122
      8 C8          1.9899    2.6063   -0.0915 C.ar      1 <0>        -0.1150
      9 C9          3.9327    1.9667   -1.3773 C.ar      1 <0>        -0.1400
     10 C10         0.4948   -2.0065   -5.8844 C.ar      1 <0>        -0.0911
     11 C11        -0.1996   -3.3685   -4.0136 C.ar      1 <0>        -0.1050
     12 C12         2.5747    1.8581   -1.1055 C.ar      1 <0>        -0.1526
     13 C13         0.5385   -2.3200   -4.5363 C.ar      1 <0>        -0.1755
     14 C14         0.9704   -0.5077    0.0274 C.3       1 <0>        -0.1328
     15 C15         1.7279    0.9199   -1.9183 C.3       1 <0>        -0.0609
     16 C16         1.4117   -1.4991   -3.6146 C.3       1 <0>         0.2890
     17 C17         1.6450   -0.4981   -1.3382 C.3       1 <0>         0.1398
     18 N1          3.8494   -2.4702   -3.4206 N.1       1 <0>        -0.2253
     19 N2          0.8419   -1.3634   -2.2500 N.4       1 <0>        -0.7833
     20 H1          4.7524    4.2709    0.9849 H         1 <0>         0.1556
     21 H2         -1.6879   -4.4132   -6.8867 H         1 <0>         0.1621
     22 H3          2.3257    4.0653    1.4574 H         1 <0>         0.1522
     23 H4          5.7812    2.9276   -0.8294 H         1 <0>         0.1539
     24 H5         -0.3541   -2.5286   -7.7942 H         1 <0>         0.1625
     25 H6         -1.5890   -4.9510   -4.4669 H         1 <0>         0.1602
     26 H7          0.9277    2.5228    0.1226 H         1 <0>         0.1370
     27 H8          4.3920    1.3823   -2.1701 H         1 <0>         0.1330
     28 H9          1.0756   -1.1828   -6.2908 H         1 <0>         0.1444
     29 H10        -0.1625   -3.6113   -2.9549 H         1 <0>         0.1342
     30 H11         1.5928   -0.0058    0.7763 H         1 <0>         0.0991
     31 H12         0.0000    0.0000    0.0000 H         1 <0>         0.0689
     32 H13         0.8044   -1.5353    0.3678 H         1 <0>         0.0635
     33 H14         2.1510    0.8679   -2.9312 H         1 <0>         0.0724
     34 H15         0.7184    1.3346   -2.0439 H         1 <0>         0.1060
     35 H16         1.4700   -0.4687   -3.9844 H         1 <0>         0.1307
     36 H17         2.6341   -0.9639   -1.2695 H         1 <0>         0.1187
     37 H18        -0.1108   -0.9835   -2.3150 H         1 <0>         0.4473
     38 H19         0.7472   -2.2950   -1.8264 H         1 <0>         0.4653
@<TRIPOS>BOND
     1    1   16 1
     2    1   18 3
     3    2    4 ar
     4    2    5 ar
     5    3    6 ar
     6    3    7 ar
     7    4    8 ar
     8    5    9 ar
     9    6   10 ar
    10    7   11 ar
    11    8   12 ar
    12    9   12 ar
    13   10   13 ar
    14   11   13 ar
    15   12   15 1
    16   13   16 1
    17   14   17 1
    18   15   17 1
    19   16   19 1
    20   17   19 1
    21    2   20 1
    22    3   21 1
    23    4   22 1
    24    5   23 1
    25    6   24 1
    26    7   25 1
    27    8   26 1
    28    9   27 1
    29   10   28 1
    30   11   29 1
    31   14   30 1
    32   14   31 1
    33   14   32 1
    34   15   33 1
    35   15   34 1
    36   16   35 1
    37   17   36 1
    38   19   37 1
    39   19   38 1
@<TRIPOS>MOLECULE
ZINC00000025_2
   38    39     0     0     0
SMALL
USER_CHARGES

mmff94s_NoEstat = 54.18
@<TRIPOS>ATOM
      1 C1         -0.1672   -3.4900   -2.7287 C.1       1 <0>         0.1289
      2 C2          4.5212    1.3052   -5.1395 C.ar      1 <0>        -0.1028
      3 C3          4.4234   -4.7269   -1.0975 C.ar      1 <0>        -0.0781
      4 C4          4.9390    1.5145   -3.8253 C.ar      1 <0>        -0.1161
      5 C5          3.1932    0.9705   -5.4042 C.ar      1 <0>        -0.1169
      6 C6          3.3223   -5.0284   -0.2961 C.ar      1 <0>        -0.1171
      7 C7          4.3052   -3.7847   -2.1193 C.ar      1 <0>        -0.1122
      8 C8          4.0289    1.3889   -2.7757 C.ar      1 <0>        -0.1150
      9 C9          2.2831    0.8450   -4.3547 C.ar      1 <0>        -0.1400
     10 C10         2.1030   -4.3878   -0.5165 C.ar      1 <0>        -0.0911
     11 C11         3.0859   -3.1442   -2.3397 C.ar      1 <0>        -0.1050
     12 C12         2.7083    1.0552   -3.0490 C.ar      1 <0>        -0.1526
     13 C13         2.0028   -3.4551   -1.5351 C.ar      1 <0>        -0.1755
     14 C14         0.9704   -0.5077    0.0274 C.3       1 <0>        -0.1328
     15 C15         1.7279    0.9199   -1.9183 C.3       1 <0>        -0.0609
     16 C16         0.6812   -2.7608   -1.7740 C.3       1 <0>         0.2890
     17 C17         1.6450   -0.4981   -1.3382 C.3       1 <0>         0.1398
     18 N1         -0.8388   -4.0660   -3.4798 N.1       1 <0>        -0.2253
     19 N2          0.8419   -1.3634   -2.2500 N.4       1 <0>        -0.7833
     20 H1          5.2299    1.4029   -5.9567 H         1 <0>         0.1556
     21 H2          5.3728   -5.2257   -0.9259 H         1 <0>         0.1621
     22 H3          5.9731    1.7751   -3.6192 H         1 <0>         0.1522
     23 H4          2.8681    0.8074   -6.4276 H         1 <0>         0.1539
     24 H5          3.4145   -5.7620    0.4995 H         1 <0>         0.1625
     25 H6          5.1627   -3.5502   -2.7434 H         1 <0>         0.1602
     26 H7          4.3635    1.5538   -1.7550 H         1 <0>         0.1370
     27 H8          1.2505    0.5838   -4.5705 H         1 <0>         0.1330
     28 H9          1.2505   -4.6291    0.1129 H         1 <0>         0.1444
     29 H10         3.0032   -2.4116   -3.1382 H         1 <0>         0.1342
     30 H11         1.5928   -0.0058    0.7763 H         1 <0>         0.0991
     31 H12         0.0000    0.0000    0.0000 H         1 <0>         0.0689
     32 H13         0.8044   -1.5353    0.3678 H         1 <0>         0.0635
     33 H14         0.7359    1.2133   -2.2891 H         1 <0>         0.0724
     34 H15         1.9671    1.6385   -1.1227 H         1 <0>         0.1060
     35 H16         0.1418   -2.6603   -0.8249 H         1 <0>         0.1307
     36 H17         2.6341   -0.9639   -1.2695 H         1 <0>         0.1187
     37 H18         1.2837   -1.3684   -3.1779 H         1 <0>         0.4473
     38 H19        -0.0852   -0.9392   -2.3799 H         1 <0>         0.4653
@<TRIPOS>BOND
     1    1   16 1
     2    1   18 3
     3    2    4 ar
     4    2    5 ar
     5    3    6 ar
     6    3    7 ar
     7    4    8 ar
     8    5    9 ar
     9    6   10 ar
    10    7   11 ar
    11    8   12 ar
    12    9   12 ar
    13   10   13 ar
    14   11   13 ar
    15   12   15 1
    16   13   16 1
    17   14   17 1
    18   15   17 1
    19   16   19 1
    20   17   19 1
    21    2   20 1
    22    3   21 1
    23    4   22 1
    24    5   23 1
    25    6   24 1
    26    7   25 1
    27    8   26 1
    28    9   27 1
    29   10   28 1
    30   11   29 1
    31   14   30 1
    32   14   31 1
    33   14   32 1
    34   15   33 1
    35   15   34 1
    36   16   35 1
    37   17   36 1
    38   19   37 1
    39   19   38 1
@<TRIPOS>MOLECULE
ZINC00000025_3
   38    39     0     0     0
SMALL
USER_CHARGES

mmff94s_NoEstat = 54.87
@<TRIPOS>ATOM
      1 C1         -0.1672   -3.4900   -2.7287 C.1       1 <0>         0.1289
      2 C2          5.0781    3.1730   -0.4948 C.ar      1 <0>        -0.1028
      3 C3          4.4234   -4.7269   -1.0975 C.ar      1 <0>        -0.0781
      4 C4          3.8641    3.2202    0.1904 C.ar      1 <0>        -0.1161
      5 C5          5.2006    2.3917   -1.6438 C.ar      1 <0>        -0.1169
      6 C6          3.3223   -5.0284   -0.2961 C.ar      1 <0>        -0.1171
      7 C7          4.3052   -3.7847   -2.1193 C.ar      1 <0>        -0.1122
      8 C8          2.7725    2.4861   -0.2735 C.ar      1 <0>        -0.1150
      9 C9          4.1090    1.6576   -2.1077 C.ar      1 <0>        -0.1400
     10 C10         2.1030   -4.3878   -0.5165 C.ar      1 <0>        -0.0911
     11 C11         3.0859   -3.1442   -2.3397 C.ar      1 <0>        -0.1050
     12 C12         2.9038    1.7108   -1.4187 C.ar      1 <0>        -0.1526
     13 C13         2.0028   -3.4551   -1.5351 C.ar      1 <0>        -0.1755
     14 C14         0.9704   -0.5077    0.0274 C.3       1 <0>        -0.1328
     15 C15         1.7279    0.9199   -1.9183 C.3       1 <0>        -0.0609
     16 C16         0.6812   -2.7608   -1.7740 C.3       1 <0>         0.2890
     17 C17         1.6450   -0.4981   -1.3382 C.3       1 <0>         0.1398
     18 N1         -0.8388   -4.0660   -3.4798 N.1       1 <0>        -0.2253
     19 N2          0.8419   -1.3634   -2.2500 N.4       1 <0>        -0.7833
     20 H1          5.9281    3.7445   -0.1336 H         1 <0>         0.1556
     21 H2          5.3728   -5.2257   -0.9259 H         1 <0>         0.1621
     22 H3          3.7689    3.8286    1.0850 H         1 <0>         0.1522
     23 H4          6.1460    2.3549   -2.1771 H         1 <0>         0.1539
     24 H5          3.4145   -5.7620    0.4995 H         1 <0>         0.1625
     25 H6          5.1627   -3.5502   -2.7434 H         1 <0>         0.1602
     26 H7          1.8305    2.5290    0.2669 H         1 <0>         0.1370
     27 H8          4.2137    1.0516   -3.0037 H         1 <0>         0.1330
     28 H9          1.2505   -4.6291    0.1129 H         1 <0>         0.1444
     29 H10         3.0032   -2.4116   -3.1382 H         1 <0>         0.1342
     30 H11         1.5928   -0.0058    0.7763 H         1 <0>         0.0991
     31 H12         0.0000    0.0000    0.0000 H         1 <0>         0.0689
     32 H13         0.8044   -1.5353    0.3678 H         1 <0>         0.0635
     33 H14         1.7997    0.8550   -3.0129 H         1 <0>         0.0724
     34 H15         0.7945    1.4635   -1.7182 H         1 <0>         0.1060
     35 H16         0.1418   -2.6603   -0.8249 H         1 <0>         0.1307
     36 H17         2.6341   -0.9639   -1.2695 H         1 <0>         0.1187
     37 H18         1.2837   -1.3684   -3.1779 H         1 <0>         0.4473
     38 H19        -0.0852   -0.9392   -2.3799 H         1 <0>         0.4653
@<TRIPOS>BOND
     1    1   16 1
     2    1   18 3
     3    2    4 ar
     4    2    5 ar
     5    3    6 ar
     6    3    7 ar
     7    4    8 ar
     8    5    9 ar
     9    6   10 ar
    10    7   11 ar
    11    8   12 ar
    12    9   12 ar
    13   10   13 ar
    14   11   13 ar
    15   12   15 1
    16   13   16 1
    17   14   17 1
    18   15   17 1
    19   16   19 1
    20   17   19 1
    21    2   20 1
    22    3   21 1
    23    4   22 1
    24    5   23 1
    25    6   24 1
    26    7   25 1
    27    8   26 1
    28    9   27 1
    29   10   28 1
    30   11   29 1
    31   14   30 1
    32   14   31 1
    33   14   32 1
    34   15   33 1
    35   15   34 1
    36   16   35 1
    37   17   36 1
    38   19   37 1
    39   19   38 1
@<TRIPOS>MOLECULE
ZINC00000025_4
   38    39     0     0     0
SMALL
USER_CHARGES

mmff94s_NoEstat = 55.19
@<TRIPOS>ATOM
      1 C1          2.7736   -2.0433   -3.5054 C.1       1 <0>         0.1289
      2 C2         -2.0673    2.8731   -2.2487 C.ar      1 <0>        -0.1028
      3 C3         -1.0607   -3.8235   -6.2246 C.ar      1 <0>        -0.0781
      4 C4         -1.5826    2.1070   -3.3088 C.ar      1 <0>        -0.1161
      5 C5         -1.3154    3.0029   -1.0810 C.ar      1 <0>        -0.1169
      6 C6         -0.3108   -2.7638   -6.7348 C.ar      1 <0>        -0.1171
      7 C7         -1.0052   -4.1258   -4.8639 C.ar      1 <0>        -0.1122
      8 C8         -0.3461    1.4706   -3.2011 C.ar      1 <0>        -0.1150
      9 C9         -0.0789    2.3665   -0.9733 C.ar      1 <0>        -0.1400
     10 C10         0.4948   -2.0065   -5.8844 C.ar      1 <0>        -0.0911
     11 C11        -0.1996   -3.3685   -4.0136 C.ar      1 <0>        -0.1050
     12 C12         0.3957    1.6055   -2.0343 C.ar      1 <0>        -0.1526
     13 C13         0.5385   -2.3200   -4.5363 C.ar      1 <0>        -0.1755
     14 C14         0.9704   -0.5077    0.0274 C.3       1 <0>        -0.1328
     15 C15         1.7279    0.9199   -1.9183 C.3       1 <0>        -0.0609
     16 C16         1.4117   -1.4991   -3.6146 C.3       1 <0>         0.2890
     17 C17         1.6450   -0.4981   -1.3382 C.3       1 <0>         0.1398
     18 N1          3.8494   -2.4702   -3.4206 N.1       1 <0>        -0.2253
     19 N2          0.8419   -1.3634   -2.2500 N.4       1 <0>        -0.7833
     20 H1         -3.0302    3.3685   -2.3325 H         1 <0>         0.1556
     21 H2         -1.6879   -4.4132   -6.8867 H         1 <0>         0.1621
     22 H3         -2.1681    2.0060   -4.2179 H         1 <0>         0.1522
     23 H4         -1.6931    3.5993   -0.2556 H         1 <0>         0.1539
     24 H5         -0.3541   -2.5286   -7.7942 H         1 <0>         0.1625
     25 H6         -1.5890   -4.9510   -4.4669 H         1 <0>         0.1602
     26 H7          0.0235    0.8758   -4.0322 H         1 <0>         0.1370
     27 H8          0.4999    2.4732   -0.0597 H         1 <0>         0.1330
     28 H9          1.0756   -1.1828   -6.2908 H         1 <0>         0.1444
     29 H10        -0.1625   -3.6113   -2.9549 H         1 <0>         0.1342
     30 H11         1.5928   -0.0058    0.7763 H         1 <0>         0.0991
     31 H12         0.0000    0.0000    0.0000 H         1 <0>         0.0689
     32 H13         0.8044   -1.5353    0.3678 H         1 <0>         0.0635
     33 H14         2.3729    1.5330   -1.2738 H         1 <0>         0.0724
     34 H15         2.2277    0.8977   -2.8962 H         1 <0>         0.1060
     35 H16         1.4700   -0.4687   -3.9844 H         1 <0>         0.1307
     36 H17         2.6341   -0.9639   -1.2695 H         1 <0>         0.1187
     37 H18        -0.1108   -0.9835   -2.3150 H         1 <0>         0.4473
     38 H19         0.7472   -2.2950   -1.8264 H         1 <0>         0.4653
@<TRIPOS>BOND
     1    1   16 1
     2    1   18 3
     3    2    4 ar
     4    2    5 ar
     5    3    6 ar
     6    3    7 ar
     7    4    8 ar
     8    5    9 ar
     9    6   10 ar
    10    7   11 ar
    11    8   12 ar
    12    9   12 ar
    13   10   13 ar
    14   11   13 ar
    15   12   15 1
    16   13   16 1
    17   14   17 1
    18   15   17 1
    19   16   19 1
    20   17   19 1
    21    2   20 1
    22    3   21 1
    23    4   22 1
    24    5   23 1
    25    6   24 1
    26    7   25 1
    27    8   26 1
    28    9   27 1
    29   10   28 1
    30   11   29 1
    31   14   30 1
    32   14   31 1
    33   14   32 1
    34   15   33 1
    35   15   34 1
    36   16   35 1
    37   17   36 1
    38   19   37 1
    39   19   38 1
@<TRIPOS>MOLECULE
ZINC00000025_5
   38    39     0     0     0
SMALL
USER_CHARGES

mmff94s_NoEstat = 57.16
@<TRIPOS>ATOM
      1 C1         -0.1672   -3.4900   -2.7287 C.1       1 <0>         0.1289
      2 C2         -2.0673    2.8731   -2.2487 C.ar      1 <0>        -0.1028
      3 C3          4.4234   -4.7269   -1.0975 C.ar      1 <0>        -0.0781
      4 C4         -1.5826    2.1070   -3.3088 C.ar      1 <0>        -0.1161
      5 C5         -1.3154    3.0029   -1.0810 C.ar      1 <0>        -0.1169
      6 C6          3.3223   -5.0284   -0.2961 C.ar      1 <0>        -0.1171
      7 C7          4.3052   -3.7847   -2.1193 C.ar      1 <0>        -0.1122
      8 C8         -0.3461    1.4706   -3.2011 C.ar      1 <0>        -0.1150
      9 C9         -0.0789    2.3665   -0.9733 C.ar      1 <0>        -0.1400
     10 C10         2.1030   -4.3878   -0.5165 C.ar      1 <0>        -0.0911
     11 C11         3.0859   -3.1442   -2.3397 C.ar      1 <0>        -0.1050
     12 C12         0.3957    1.6055   -2.0343 C.ar      1 <0>        -0.1526
     13 C13         2.0028   -3.4551   -1.5351 C.ar      1 <0>        -0.1755
     14 C14         0.9704   -0.5077    0.0274 C.3       1 <0>        -0.1328
     15 C15         1.7279    0.9199   -1.9183 C.3       1 <0>        -0.0609
     16 C16         0.6812   -2.7608   -1.7740 C.3       1 <0>         0.2890
     17 C17         1.6450   -0.4981   -1.3382 C.3       1 <0>         0.1398
     18 N1         -0.8388   -4.0660   -3.4798 N.1       1 <0>        -0.2253
     19 N2          0.8419   -1.3634   -2.2500 N.4       1 <0>        -0.7833
     20 H1         -3.0302    3.3685   -2.3325 H         1 <0>         0.1556
     21 H2          5.3728   -5.2257   -0.9259 H         1 <0>         0.1621
     22 H3         -2.1681    2.0060   -4.2179 H         1 <0>         0.1522
     23 H4         -1.6931    3.5993   -0.2556 H         1 <0>         0.1539
     24 H5          3.4145   -5.7620    0.4995 H         1 <0>         0.1625
     25 H6          5.1627   -3.5502   -2.7434 H         1 <0>         0.1602
     26 H7          0.0235    0.8758   -4.0322 H         1 <0>         0.1370
     27 H8          0.4999    2.4732   -0.0597 H         1 <0>         0.1330
     28 H9          1.2505   -4.6291    0.1129 H         1 <0>         0.1444
     29 H10         3.0032   -2.4116   -3.1382 H         1 <0>         0.1342
     30 H11         1.5928   -0.0058    0.7763 H         1 <0>         0.0991
     31 H12         0.0000    0.0000    0.0000 H         1 <0>         0.0689
     32 H13         0.8044   -1.5353    0.3678 H         1 <0>         0.0635
     33 H14         2.3729    1.5330   -1.2738 H         1 <0>         0.0724
     34 H15         2.2277    0.8977   -2.8962 H         1 <0>         0.1060
     35 H16         0.1418   -2.6603   -0.8249 H         1 <0>         0.1307
     36 H17         2.6341   -0.9639   -1.2695 H         1 <0>         0.1187
     37 H18         1.2837   -1.3684   -3.1779 H         1 <0>         0.4473
     38 H19        -0.0852   -0.9392   -2.3799 H         1 <0>         0.4653
@<TRIPOS>BOND
     1    1   16 1
     2    1   18 3
     3    2    4 ar
     4    2    5 ar
     5    3    6 ar
     6    3    7 ar
     7    4    8 ar
     8    5    9 ar
     9    6   10 ar
    10    7   11 ar
    11    8   12 ar
    12    9   12 ar
    13   10   13 ar
    14   11   13 ar
    15   12   15 1
    16   13   16 1
    17   14   17 1
    18   15   17 1
    19   16   19 1
    20   17   19 1
    21    2   20 1
    22    3   21 1
    23    4   22 1
    24    5   23 1
    25    6   24 1
    26    7   25 1
    27    8   26 1
    28    9   27 1
    29   10   28 1
    30   11   29 1
    31   14   30 1
    32   14   31 1
    33   14   32 1
    34   15   33 1
    35   15   34 1
    36   16   35 1
    37   17   36 1
    38   19   37 1
    39   19   38 1
@<TRIPOS>MOLECULE
ZINC00000025_6
   38    39     0     0     0
SMALL
USER_CHARGES

mmff94s_NoEstat = 62.78
@<TRIPOS>ATOM
      1 C1         -0.1672   -3.4900   -2.7287 C.1       1 <0>         0.1289
      2 C2          4.1403    3.5929    0.3973 C.ar      1 <0>        -0.1028
      3 C3          4.4234   -4.7268   -1.0974 C.ar      1 <0>        -0.0781
      4 C4          3.0638    4.0862   -0.3398 C.ar      1 <0>        -0.1161
      5 C5          4.4309    2.2287    0.3799 C.ar      1 <0>        -0.1169
      6 C6          3.8455   -3.9600   -0.0857 C.ar      1 <0>        -0.1171
      7 C7          3.7821   -4.8530   -2.3297 C.ar      1 <0>        -0.1122
      8 C8          2.2778    3.2153   -1.0943 C.ar      1 <0>        -0.1150
      9 C9          3.6448    1.3578   -0.3746 C.ar      1 <0>        -0.1400
     10 C10         2.6262   -3.3195   -0.3061 C.ar      1 <0>        -0.0911
     11 C11         2.5628   -4.2124   -2.5501 C.ar      1 <0>        -0.1050
     12 C12         2.5747    1.8581   -1.1055 C.ar      1 <0>        -0.1526
     13 C13         2.0028   -3.4551   -1.5351 C.ar      1 <0>        -0.1755
     14 C14         0.9704   -0.5077    0.0274 C.3       1 <0>        -0.1328
     15 C15         1.7279    0.9199   -1.9183 C.3       1 <0>        -0.0609
     16 C16         0.6812   -2.7608   -1.7740 C.3       1 <0>         0.2890
     17 C17         1.6450   -0.4981   -1.3382 C.3       1 <0>         0.1398
     18 N1         -0.8388   -4.0660   -3.4798 N.1       1 <0>        -0.2253
     19 N2          0.8419   -1.3634   -2.2500 N.4       1 <0>        -0.7833
     20 H1          4.7523    4.2710    0.9849 H         1 <0>         0.1556
     21 H2          5.3728   -5.2256   -0.9257 H         1 <0>         0.1621
     22 H3          2.8377    5.1484   -0.3262 H         1 <0>         0.1522
     23 H4          5.2690    1.8448    0.9541 H         1 <0>         0.1539
     24 H5          4.3450   -3.8619    0.8738 H         1 <0>         0.1625
     25 H6          4.2321   -5.4502   -3.1173 H         1 <0>         0.1602
     26 H7          1.4410    3.6086   -1.6655 H         1 <0>         0.1370
     27 H8          3.8787    0.2965   -0.3820 H         1 <0>         0.1330
     28 H9          2.1835   -2.7242    0.4880 H         1 <0>         0.1444
     29 H10         2.0703   -4.3165   -3.5133 H         1 <0>         0.1342
     30 H11         1.5928   -0.0058    0.7763 H         1 <0>         0.0991
     31 H12         0.0000    0.0000    0.0000 H         1 <0>         0.0689
     32 H13         0.8044   -1.5353    0.3678 H         1 <0>         0.0635
     33 H14         2.1510    0.8679   -2.9312 H         1 <0>         0.0724
     34 H15         0.7184    1.3346   -2.0439 H         1 <0>         0.1060
     35 H16         0.1418   -2.6603   -0.8249 H         1 <0>         0.1307
     36 H17         2.6341   -0.9639   -1.2695 H         1 <0>         0.1187
     37 H18         1.2837   -1.3684   -3.1779 H         1 <0>         0.4473
     38 H19        -0.0852   -0.9392   -2.3799 H         1 <0>         0.4653
@<TRIPOS>BOND
     1    1   16 1
     2    1   18 3
     3    2    4 ar
     4    2    5 ar
     5    3    6 ar
     6    3    7 ar
     7    4    8 ar
     8    5    9 ar
     9    6   10 ar
    10    7   11 ar
    11    8   12 ar
    12    9   12 ar
    13   10   13 ar
    14   11   13 ar
    15   12   15 1
    16   13   16 1
    17   14   17 1
    18   15   17 1
    19   16   19 1
    20   17   19 1
    21    2   20 1
    22    3   21 1
    23    4   22 1
    24    5   23 1
    25    6   24 1
    26    7   25 1
    27    8   26 1
    28    9   27 1
    29   10   28 1
    30   11   29 1
    31   14   30 1
    32   14   31 1
    33   14   32 1
    34   15   33 1
    35   15   34 1
    36   16   35 1
    37   17   36 1
    38   19   37 1
    39   19   38 1
@<TRIPOS>MOLECULE
ZINC00000025_7
   38    39     0     0     0
SMALL
USER_CHARGES

mmff94s_NoEstat = 63.06
@<TRIPOS>ATOM
      1 C1         -0.1672   -3.4900   -2.7287 C.1       1 <0>         0.1289
      2 C2          3.3900    1.0766   -5.8604 C.ar      1 <0>        -0.1028
      3 C3          4.4234   -4.7268   -1.0974 C.ar      1 <0>        -0.0781
      4 C4          2.4496    2.0265   -5.4618 C.ar      1 <0>        -0.1161
      5 C5          3.7888    0.0755   -4.9746 C.ar      1 <0>        -0.1169
      6 C6          3.8455   -3.9600   -0.0857 C.ar      1 <0>        -0.1171
      7 C7          3.7821   -4.8530   -2.3297 C.ar      1 <0>        -0.1122
      8 C8          1.9081    1.9755   -4.1774 C.ar      1 <0>        -0.1150
      9 C9          3.2472    0.0245   -3.6902 C.ar      1 <0>        -0.1400
     10 C10         2.6262   -3.3195   -0.3061 C.ar      1 <0>        -0.0911
     11 C11         2.5628   -4.2124   -2.5501 C.ar      1 <0>        -0.1050
     12 C12         2.3113    0.9749   -3.3020 C.ar      1 <0>        -0.1526
     13 C13         2.0028   -3.4551   -1.5351 C.ar      1 <0>        -0.1755
     14 C14         0.9704   -0.5077    0.0274 C.3       1 <0>        -0.1328
     15 C15         1.7279    0.9199   -1.9183 C.3       1 <0>        -0.0609
     16 C16         0.6812   -2.7608   -1.7740 C.3       1 <0>         0.2890
     17 C17         1.6450   -0.4981   -1.3382 C.3       1 <0>         0.1398
     18 N1         -0.8388   -4.0660   -3.4798 N.1       1 <0>        -0.2253
     19 N2          0.8419   -1.3634   -2.2500 N.4       1 <0>        -0.7833
     20 H1          3.8117    1.1163   -6.8605 H         1 <0>         0.1556
     21 H2          5.3728   -5.2256   -0.9257 H         1 <0>         0.1621
     22 H3          2.1392    2.8059   -6.1516 H         1 <0>         0.1522
     23 H4          4.5211   -0.6640   -5.2851 H         1 <0>         0.1539
     24 H5          4.3450   -3.8619    0.8738 H         1 <0>         0.1625
     25 H6          4.2321   -5.4502   -3.1173 H         1 <0>         0.1602
     26 H7          1.1760    2.7199   -3.8756 H         1 <0>         0.1370
     27 H8          3.5639   -0.7590   -3.0069 H         1 <0>         0.1330
     28 H9          2.1835   -2.7242    0.4880 H         1 <0>         0.1444
     29 H10         2.0703   -4.3165   -3.5133 H         1 <0>         0.1342
     30 H11         1.5928   -0.0058    0.7763 H         1 <0>         0.0991
     31 H12         0.0000    0.0000    0.0000 H         1 <0>         0.0689
     32 H13         0.8044   -1.5353    0.3678 H         1 <0>         0.0635
     33 H14         0.7176    1.3507   -1.9559 H         1 <0>         0.0724
     34 H15         2.2983    1.5705   -1.2416 H         1 <0>         0.1060
     35 H16         0.1418   -2.6603   -0.8249 H         1 <0>         0.1307
     36 H17         2.6341   -0.9639   -1.2695 H         1 <0>         0.1187
     37 H18         1.2837   -1.3684   -3.1779 H         1 <0>         0.4473
     38 H19        -0.0852   -0.9392   -2.3799 H         1 <0>         0.4653
@<TRIPOS>BOND
     1    1   16 1
     2    1   18 3
     3    2    4 ar
     4    2    5 ar
     5    3    6 ar
     6    3    7 ar
     7    4    8 ar
     8    5    9 ar
     9    6   10 ar
    10    7   11 ar
    11    8   12 ar
    12    9   12 ar
    13   10   13 ar
    14   11   13 ar
    15   12   15 1
    16   13   16 1
    17   14   17 1
    18   15   17 1
    19   16   19 1
    20   17   19 1
    21    2   20 1
    22    3   21 1
    23    4   22 1
    24    5   23 1
    25    6   24 1
    26    7   25 1
    27    8   26 1
    28    9   27 1
    29   10   28 1
    30   11   29 1
    31   14   30 1
    32   14   31 1
    33   14   32 1
    34   15   33 1
    35   15   34 1
    36   16   35 1
    37   17   36 1
    38   19   37 1
    39   19   38 1
@<TRIPOS>MOLECULE
ZINC00000025_8
   38    39     0     0     0
SMALL
USER_CHARGES

mmff94s_NoEstat = 68.63
@<TRIPOS>ATOM
      1 C1          2.7736   -2.0433   -3.5054 C.1       1 <0>         0.1289
      2 C2          5.0781    3.1731   -0.4949 C.ar      1 <0>        -0.1028
      3 C3         -1.0608   -3.8234   -6.2246 C.ar      1 <0>        -0.0781
      4 C4          4.5678    3.4129   -1.7707 C.ar      1 <0>        -0.1161
      5 C5          4.4969    2.1991    0.3171 C.ar      1 <0>        -0.1169
      6 C6         -1.2838   -2.4531   -6.0897 C.ar      1 <0>        -0.1171
      7 C7         -0.0322   -4.4364   -5.5090 C.ar      1 <0>        -0.1122
      8 C8          3.4762    2.6787   -2.2345 C.ar      1 <0>        -0.1150
      9 C9          3.4053    1.4650   -0.1467 C.ar      1 <0>        -0.1400
     10 C10        -0.4782   -1.6958   -5.2393 C.ar      1 <0>        -0.0911
     11 C11         0.7734   -3.6791   -4.6586 C.ar      1 <0>        -0.1050
     12 C12         2.9038    1.7108   -1.4187 C.ar      1 <0>        -0.1526
     13 C13         0.5385   -2.3200   -4.5363 C.ar      1 <0>        -0.1755
     14 C14         0.9704   -0.5077    0.0274 C.3       1 <0>        -0.1328
     15 C15         1.7279    0.9199   -1.9183 C.3       1 <0>        -0.0609
     16 C16         1.4117   -1.4991   -3.6146 C.3       1 <0>         0.2890
     17 C17         1.6450   -0.4981   -1.3382 C.3       1 <0>         0.1398
     18 N1          3.8494   -2.4702   -3.4206 N.1       1 <0>        -0.2253
     19 N2          0.8419   -1.3634   -2.2500 N.4       1 <0>        -0.7833
     20 H1          5.9280    3.7448   -0.1338 H         1 <0>         0.1556
     21 H2         -1.6880   -4.4131   -6.8867 H         1 <0>         0.1621
     22 H3          5.0204    4.1712   -2.4029 H         1 <0>         0.1522
     23 H4          4.8943    2.0127    1.3105 H         1 <0>         0.1539
     24 H5         -2.0846   -1.9760   -6.6469 H         1 <0>         0.1625
     25 H6          0.1414   -5.5034   -5.6142 H         1 <0>         0.1602
     26 H7          3.0853    2.8724   -3.2299 H         1 <0>         0.1370
     27 H8          2.9590    0.7083    0.4930 H         1 <0>         0.1330
     28 H9         -0.6593   -0.6288   -5.1406 H         1 <0>         0.1444
     29 H10         1.5724   -4.1653   -4.1052 H         1 <0>         0.1342
     30 H11         1.5928   -0.0058    0.7763 H         1 <0>         0.0991
     31 H12         0.0000    0.0000    0.0000 H         1 <0>         0.0689
     32 H13         0.8044   -1.5353    0.3678 H         1 <0>         0.0635
     33 H14         1.7997    0.8550   -3.0129 H         1 <0>         0.0724
     34 H15         0.7945    1.4635   -1.7182 H         1 <0>         0.1060
     35 H16         1.4700   -0.4687   -3.9844 H         1 <0>         0.1307
     36 H17         2.6341   -0.9639   -1.2695 H         1 <0>         0.1187
     37 H18        -0.1108   -0.9835   -2.3150 H         1 <0>         0.4473
     38 H19         0.7472   -2.2950   -1.8264 H         1 <0>         0.4653
@<TRIPOS>BOND
     1    1   16 1
     2    1   18 3
     3    2    4 ar
     4    2    5 ar
     5    3    6 ar
     6    3    7 ar
     7    4    8 ar
     8    5    9 ar
     9    6   10 ar
    10    7   11 ar
    11    8   12 ar
    12    9   12 ar
    13   10   13 ar
    14   11   13 ar
    15   12   15 1
    16   13   16 1
    17   14   17 1
    18   15   17 1
    19   16   19 1
    20   17   19 1
    21    2   20 1
    22    3   21 1
    23    4   22 1
    24    5   23 1
    25    6   24 1
    26    7   25 1
    27    8   26 1
    28    9   27 1
    29   10   28 1
    30   11   29 1
    31   14   30 1
    32   14   31 1
    33   14   32 1
    34   15   33 1
    35   15   34 1
    36   16   35 1
    37   17   36 1
    38   19   37 1
    39   19   38 1
@<TRIPOS>MOLECULE
ZINC00000025_9
   38    39     0     0     0
SMALL
USER_CHARGES

mmff94s_NoEstat = 75.41
@<TRIPOS>ATOM
      1 C1         -0.4930    0.4785   -3.0214 C.1       1 <0>         0.1289
      2 C2          5.0781    3.1730   -0.4948 C.ar      1 <0>        -0.1028
      3 C3         -2.8427   -3.5344   -4.9295 C.ar      1 <0>        -0.0781
      4 C4          3.8641    3.2202    0.1904 C.ar      1 <0>        -0.1161
      5 C5          5.2006    2.3917   -1.6438 C.ar      1 <0>        -0.1169
      6 C6         -3.4644   -2.8146   -3.9092 C.ar      1 <0>        -0.1171
      7 C7         -1.4727   -3.3911   -5.1493 C.ar      1 <0>        -0.1122
      8 C8          2.7725    2.4861   -0.2735 C.ar      1 <0>        -0.1150
      9 C9          4.1090    1.6576   -2.1077 C.ar      1 <0>        -0.1400
     10 C10        -2.7161   -1.9513   -3.1088 C.ar      1 <0>        -0.0911
     11 C11        -0.7245   -2.5278   -4.3490 C.ar      1 <0>        -0.1050
     12 C12         2.9038    1.7108   -1.4187 C.ar      1 <0>        -0.1526
     13 C13        -1.3572   -1.8207   -3.3405 C.ar      1 <0>        -0.1755
     14 C14         0.9704   -0.5077    0.0274 C.3       1 <0>        -0.1328
     15 C15         1.7279    0.9199   -1.9183 C.3       1 <0>        -0.0609
     16 C16        -0.5462   -0.8851   -2.4730 C.3       1 <0>         0.2890
     17 C17         1.6450   -0.4981   -1.3382 C.3       1 <0>         0.1398
     18 N1         -0.4528    1.5555   -3.4518 N.1       1 <0>        -0.2253
     19 N2          0.8419   -1.3634   -2.2500 N.4       1 <0>        -0.7833
     20 H1          5.9281    3.7445   -0.1336 H         1 <0>         0.1556
     21 H2         -3.4253   -4.2064   -5.5527 H         1 <0>         0.1621
     22 H3          3.7689    3.8286    1.0850 H         1 <0>         0.1522
     23 H4          6.1460    2.3549   -2.1771 H         1 <0>         0.1539
     24 H5         -4.5311   -2.9263   -3.7381 H         1 <0>         0.1625
     25 H6         -0.9888   -3.9515   -5.9439 H         1 <0>         0.1602
     26 H7          1.8305    2.5290    0.2669 H         1 <0>         0.1370
     27 H8          4.2137    1.0516   -3.0037 H         1 <0>         0.1330
     28 H9         -3.2090   -1.3946   -2.3163 H         1 <0>         0.1444
     29 H10         0.3423   -2.4225   -4.5277 H         1 <0>         0.1342
     30 H11         1.5928   -0.0058    0.7763 H         1 <0>         0.0991
     31 H12         0.0000    0.0000    0.0000 H         1 <0>         0.0689
     32 H13         0.8044   -1.5353    0.3678 H         1 <0>         0.0635
     33 H14         1.7997    0.8550   -3.0129 H         1 <0>         0.0724
     34 H15         0.7945    1.4635   -1.7182 H         1 <0>         0.1060
     35 H16        -0.9811   -0.8463   -1.4675 H         1 <0>         0.1307
     36 H17         2.6341   -0.9639   -1.2695 H         1 <0>         0.1187
     37 H18         0.8162   -2.3165   -1.8664 H         1 <0>         0.4473
     38 H19         1.3268   -1.4345   -3.1534 H         1 <0>         0.4653
@<TRIPOS>BOND
     1    1   16 1
     2    1   18 3
     3    2    4 ar
     4    2    5 ar
     5    3    6 ar
     6    3    7 ar
     7    4    8 ar
     8    5    9 ar
     9    6   10 ar
    10    7   11 ar
    11    8   12 ar
    12    9   12 ar
    13   10   13 ar
    14   11   13 ar
    15   12   15 1
    16   13   16 1
    17   14   17 1
    18   15   17 1
    19   16   19 1
    20   17   19 1
    21    2   20 1
    22    3   21 1
    23    4   22 1
    24    5   23 1
    25    6   24 1
    26    7   25 1
    27    8   26 1
    28    9   27 1
    29   10   28 1
    30   11   29 1
    31   14   30 1
    32   14   31 1
    33   14   32 1
    34   15   33 1
    35   15   34 1
    36   16   35 1
    37   17   36 1
    38   19   37 1
    39   19   38 1
