# Ligand [name]_[conformer]_[binding mode]: 1a2c_ligand_268_0008
# SLIDE Version: 3.3.5
# Time stamp: Tue Jul  7 17:49:00 2009
# Affiscore (kcal/mol), for ranking ligand candidates: -8.320
# Ligand Efficiency ((Affinity Score - Constant Term) / # non-H atoms): -0.072
# ===========================================================================
# Weighted term values
# hydrophobic complementarity term (kcal/mol)       : -5.469 
# polar term (kcal/mol)                             : -0.581 
# unsatisfied polar term (kcal/mol)                 : 2.948 
# constant term (kcal/mol)                          : -5.218 
# ===========================================================================
# protein-ligand hydrophobic contacts         : 87
# protein-ligand H-bond count                 : 3
# protein-ligand salt-bridge count            : 4
# metal-ligand interactions count             : 0
# unsatisfied interfacial polar atom count    : 13
# unsatisfied interfacial charged atom count  : 9
# buried carbons (x 100%)          : 0.900
# remaining vdW collisions         : 1
# total vdW overlap (A)            : 0.200
# anchor fragment translations     : 3
# side-chain mean-field iterations : 4
# ligand side-chain rotations      : 0
# protein side-chain rotations     : 8
# Orientscore (kcal/mol), used by SLIDE to select binding mode: -9.396
# ===========================================================================
# Anchor fragment atoms matched to template:
# ligand atom   33  N3   N.pl3 to template point 31 D
# ligand atom   32  N2   N.pl3 to template point 34 D
# ligand hydrophobic center  0 to template point 96 H
# ===========================================================================
#          |Ligand Atom -- Protein Atom|
#          |   #  type  -- RES   # type|
# hbond   1:  32  N.pl3 -- GLY  219  O   (dist: 2.629, D-H-A angle: 161.2)
# hbond   2:  38  O.2   -- GLY  193  N   (dist: 3.276, D-H-A angle: 158.4)
# hbond   3:  42  O.3   -- GLY  216  O   (dist: 3.293, D-H-A angle: 173.3)
# salt bridge   1 :  32  N.pl3 -- ASP  189  OD1 (dist: 3.589)
# salt bridge   2 :  32  N.pl3 -- ASP  189  OD2 (dist: 2.704)
# salt bridge   3 :  33  N.pl3 -- ASP  189  OD1 (dist: 2.713)
# salt bridge   4 :  33  N.pl3 -- ASP  189  OD2 (dist: 3.516)
# ===========================================================================
@<TRIPOS>MOLECULE
1a2c_ligand_268
   92    94     0     0     0
SMALL
USER_CHARGES
@<TRIPOS>ATOM
      1 C1         12.3657  -13.7450    8.4948 C.ar      1 <0>       -0.0708 
      2 C2         11.7035  -12.1266   10.1619 C.ar      1 <0>       -0.0872 
      3 C3         11.0887  -13.6922    7.9361 C.ar      1 <0>       -0.2241 
      4 C4         10.4264  -12.0737    9.6032 C.ar      1 <0>       -0.1600 
      5 C5         12.6560  -12.9615    9.6000 C.ar      1 <0>       -0.1356 
      6 C6         10.1190  -12.8566    8.4904 C.ar      1 <0>        0.1290 
      7 C7         15.2744  -13.5238   18.5463 C.2       1 <0>        0.6664 
      8 C8         15.2599  -12.7305   15.5749 C.2       1 <0>        0.6651 
      9 C9         15.3623  -13.8367   12.1756 C.2       1 <0>        0.6454 
     10 C10        10.5544  -11.9850   23.9617 C.cat     1 <0>        0.6349 
     11 C11        14.8994  -17.6999   16.1696 C.3       1 <0>       -0.0642 
     12 C12        16.3544  -17.9876   16.5338 C.3       1 <0>       -0.0747 
     13 C13        14.3553  -15.6655   17.6533 C.3       1 <0>       -0.0873 
     14 C14        17.0148  -15.6243   15.9754 C.3       1 <0>       -0.1371 
     15 C15        14.4609  -14.1515   17.4572 C.3       1 <0>        0.0360 
     16 C16        14.5289  -16.2217   16.2360 C.3       1 <0>       -0.0720 
     17 C17        15.5615  -15.2680   15.6193 C.3       1 <0>        0.1201 
     18 C18        17.3250  -17.1018   15.7557 C.3       1 <0>        0.1453 
     19 C19        18.7890  -11.7701   15.2384 C.3       1 <0>       -0.0968 
     20 C20        16.8976  -10.6965   16.4750 C.3       1 <0>       -0.0986 
     21 C21        14.0388  -13.0182   10.2043 C.3       1 <0>       -0.0191 
     22 C22        13.3062  -11.4912   21.4168 C.3       1 <0>       -0.1009 
     23 C23        14.2481  -12.5625   21.9787 C.3       1 <0>       -0.0942 
     24 C24        16.5837  -11.2789   14.0503 C.3       1 <0>       -0.0988 
     25 C25        12.3228  -11.0102   22.4816 C.3       1 <0>        0.1966 
     26 C26        16.2567  -14.1275   21.5830 C.3       1 <0>        0.1128 
     27 C27        16.0276  -12.6795   14.2787 C.3       1 <0>        0.0786 
     28 C28        14.1482  -14.0925   11.2913 C.3       1 <0>        0.0744 
     29 C29        17.5967  -10.8198   15.1183 C.3       1 <0>       -0.0678 
     30 C30        15.3162  -13.0745   20.9915 C.3       1 <0>        0.1065 
     31 N1         15.1822  -13.9696   16.1965 N.am      1 <0>       -0.4315 
     32 N2          9.8127  -13.0811   24.3896 N.pl3     1 <0>       -0.8671 
     33 N3         10.3211  -10.7414   24.5389 N.pl3     1 <0>       -0.8581 
     34 N4         14.6998  -13.6123   19.7999 N.am      1 <0>       -0.5687 
     35 N5         15.0574  -13.0712   13.2989 N.am      1 <0>       -0.5746 
     36 N6         11.5306  -12.1185   22.9592 N.pl3     1 <0>       -0.7533 
     37 O1         16.3468  -12.9977   18.2728 O.2       1 <0>       -0.5843 
     38 O2         14.7410  -11.7047   16.0213 O.2       1 <0>       -0.6812 
     39 O3         16.4823  -14.2593   11.8976 O.2       1 <0>       -0.5788 
     40 O4          8.8734  -12.8037    7.9443 O.3       1 <0>       -0.4938 
     41 O5         17.2433  -17.3890   14.3623 O.3       1 <0>       -0.6030 
     42 O6         15.5107  -15.2665   21.9915 O.3       1 <0>       -0.5860 
     43 O7         14.3084  -15.3608   10.6723 O.3       1 <0>       -0.6021 
     44 H1         13.1144  -14.3990    8.0562 H         1 <0>        0.1412 
     45 H2         11.9342  -11.5128   11.0288 H         1 <0>        0.1451 
     46 H3         10.8554  -14.3042    7.0693 H         1 <0>        0.1336 
     47 H4          9.6755  -11.4200   10.0390 H         1 <0>        0.1567 
     48 H5         14.7210  -18.0546   15.1462 H         1 <0>        0.0649 
     49 H6         14.2355  -18.2840   16.8179 H         1 <0>        0.0476 
     50 H7         16.5040  -17.8424   17.6099 H         1 <0>        0.0641 
     51 H8         16.5630  -19.0420   16.3160 H         1 <0>        0.0484 
     52 H9         15.1325  -16.0385   18.3307 H         1 <0>        0.0596 
     53 H10        13.3888  -15.9474   18.0844 H         1 <0>        0.0757 
     54 H11        17.6846  -15.0070   15.3636 H         1 <0>        0.0782 
     55 H12        17.2266  -15.3680   17.0212 H         1 <0>        0.0812 
     56 H13        13.4854  -13.6593   17.3979 H         1 <0>        0.0731 
     57 H14        13.5699  -16.0863   15.7149 H         1 <0>        0.0511 
     58 H15        15.4475  -15.2392   14.5297 H         1 <0>        0.0753 
     59 H16        18.3521  -17.3146   16.0706 H         1 <0>        0.0427 
     60 H17        19.4522  -11.4598   16.0531 H         1 <0>        0.0450 
     61 H18        19.3864  -11.7784   14.3219 H         1 <0>        0.0406 
     62 H19        18.4608  -12.7950   15.4424 H         1 <0>        0.0274 
     63 H20        16.5032  -11.6624   16.8084 H         1 <0>        0.0476 
     64 H21        17.5923  -10.3321   17.2393 H         1 <0>        0.0170 
     65 H22        16.0630   -9.9893   16.4202 H         1 <0>        0.0477 
     66 H23        14.2900  -12.0338   10.6215 H         1 <0>        0.0814 
     67 H24        14.7611  -13.1942    9.3973 H         1 <0>        0.0685 
     68 H25        13.8841  -10.6346   21.0506 H         1 <0>        0.1016 
     69 H26        12.7482  -11.8875   20.5601 H         1 <0>        0.0660 
     70 H27        13.6498  -13.4169   22.3235 H         1 <0>        0.0512 
     71 H28        14.7474  -12.1659   22.8720 H         1 <0>        0.0454 
     72 H29        15.7518  -10.5630   14.0067 H         1 <0>        0.0575 
     73 H30        17.0691  -11.2350   13.0652 H         1 <0>        0.0743 
     74 H31        11.6571  -10.2461   22.0666 H         1 <0>        0.0662 
     75 H32        12.8587  -10.5642   23.3258 H         1 <0>        0.0622 
     76 H33        16.8097  -13.7437   22.4468 H         1 <0>        0.0321 
     77 H34        16.9854  -14.4552   20.8328 H         1 <0>        0.0204 
     78 H35        16.8044  -13.4417   14.3257 H         1 <0>        0.0749 
     79 H36        13.2485  -14.1267   11.9170 H         1 <0>        0.0719 
     80 H37        17.9755   -9.8261   14.8495 H         1 <0>        0.0609 
     81 H38        15.9192  -12.2040   20.7022 H         1 <0>        0.1063 
     82 H39         9.9473  -14.0082   23.9952 H         1 <0>        0.4792 
     83 H40         9.1060  -12.9827   25.1149 H         1 <0>        0.4819 
     84 H41        10.8453   -9.9192   24.2496 H         1 <0>        0.4802 
     85 H42         9.6206  -10.6219   25.2667 H         1 <0>        0.4826 
     86 H43        13.8015  -14.0776   19.8882 H         1 <0>        0.3101 
     87 H44        14.0898  -12.7728   13.4316 H         1 <0>        0.3087 
     88 H45        11.6618  -13.0590   22.5674 H         1 <0>        0.4846 
     89 H46         8.6327  -13.6669    7.5715 H         1 <0>        0.4194 
     90 H47        16.8575  -16.6056   13.9396 H         1 <0>        0.4036 
     91 H48        15.2893  -15.1876   22.9223 H         1 <0>        0.4114 
     92 H49        14.0525  -15.2537    9.7416 H         1 <0>        0.3944 
@<TRIPOS>BOND
    1     1     3 ar
    2     1     5 ar
    3     2     4 ar
    4     2     5 ar
    5     3     6 ar
    6     4     6 ar
    7     5    21 1
    8     6    40 1
    9     7    15 1
   10     7    34 am
   11     7    37 2
   12     8    27 1
   13     8    31 am
   14     8    38 2
   15     9    28 1
   16     9    35 am
   17     9    39 2
   18    10    32 1
   19    10    33 1
   20    10    36 1
   21    11    12 1
   22    11    16 1
   23    12    18 1
   24    13    15 1
   25    13    16 1
   26    14    17 1
   27    14    18 1
   28    15    31 1
   29    16    17 1
   30    17    31 1
   31    18    41 1
   32    19    29 1
   33    20    29 1
   34    21    28 1
   35    22    23 1
   36    22    25 1
   37    23    30 1
   38    24    27 1
   39    24    29 1
   40    25    36 1
   41    26    30 1
   42    26    42 1
   43    27    35 1
   44    28    43 1
   45    30    34 1
   46     1    44 1
   47     2    45 1
   48     3    46 1
   49     4    47 1
   50    11    48 1
   51    11    49 1
   52    12    50 1
   53    12    51 1
   54    13    52 1
   55    13    53 1
   56    14    54 1
   57    14    55 1
   58    15    56 1
   59    16    57 1
   60    17    58 1
   61    18    59 1
   62    19    60 1
   63    19    61 1
   64    19    62 1
   65    20    63 1
   66    20    64 1
   67    20    65 1
   68    21    66 1
   69    21    67 1
   70    22    68 1
   71    22    69 1
   72    23    70 1
   73    23    71 1
   74    24    72 1
   75    24    73 1
   76    25    74 1
   77    25    75 1
   78    26    76 1
   79    26    77 1
   80    27    78 1
   81    28    79 1
   82    29    80 1
   83    30    81 1
   84    32    82 1
   85    32    83 1
   86    33    84 1
   87    33    85 1
   88    34    86 1
   89    35    87 1
   90    36    88 1
   91    40    89 1
   92    41    90 1
   93    42    91 1
   94    43    92 1
@<TRIPOS>SUBSTRUCTURE
