# Ligand [name]_[conformer]_[binding mode]: 1a46_ligand_337_0005
# SLIDE Version: 3.3.5
# Time stamp: Tue Jul  7 17:49:50 2009
# Affiscore (kcal/mol), for ranking ligand candidates: -9.292
# Ligand Efficiency ((Affinity Score - Constant Term) / # non-H atoms): -0.107
# ===========================================================================
# Weighted term values
# hydrophobic complementarity term (kcal/mol)       : -5.803 
# polar term (kcal/mol)                             : -0.415 
# unsatisfied polar term (kcal/mol)                 : 2.144 
# constant term (kcal/mol)                          : -5.218 
# ===========================================================================
# protein-ligand hydrophobic contacts         : 91
# protein-ligand H-bond count                 : 5
# protein-ligand salt-bridge count            : 0
# metal-ligand interactions count             : 0
# unsatisfied interfacial polar atom count    : 15
# unsatisfied interfacial charged atom count  : 1
# buried carbons (x 100%)          : 1.000
# remaining vdW collisions         : 5
# total vdW overlap (A)            : 1.830
# anchor fragment translations     : 1
# side-chain mean-field iterations : 10
# ligand side-chain rotations      : 1
# protein side-chain rotations     : 11
# Orientscore (kcal/mol), used by SLIDE to select binding mode: -8.703
# ===========================================================================
# Anchor fragment atoms matched to template:
# ligand atom   32  N4   N.3   to template point 34 D
# ligand atom   36  O2   O.2   to template point 77 A
# ligand hydrophobic center  0 to template point 122 H
# ===========================================================================
#          |Ligand Atom -- Protein Atom|
#          |   #  type  -- RES   # type|
# hbond   1:  32  N.3   -- ASP  189  OD2 (dist: 2.886, D-H-A angle: 134.3)
# hbond   2:  32  N.3   -- GLY  219  O   (dist: 2.872, D-H-A angle: 153.4)
# hbond   3:  36  O.2   -- SER  195  OG  (dist: 3.098, D-H-A angle: 149.3)
# hbond   4:  37  O.2   -- HIS   57  NE2 (dist: 3.057, D-H-A angle: 140.9)
# hbond   5:  37  O.2   -- SER  195  OG  (dist: 2.682, D-H-A angle: 158.7)
# ===========================================================================
@<TRIPOS>MOLECULE
1a46_ligand_337
   80    83     0     0     0
SMALL
USER_CHARGES
@<TRIPOS>ATOM
      1 C1         22.5149  -14.7068   25.9166 C.ar      1 <0>       -0.1300 
      2 C2         21.2943  -14.0351   25.9855 C.ar      1 <0>       -0.1323 
      3 C3         22.9596  -15.2222   24.6991 C.ar      1 <0>       -0.1309 
      4 C4         20.5183  -13.8790   24.8370 C.ar      1 <0>       -0.1275 
      5 C5         22.1835  -15.0660   23.5506 C.ar      1 <0>       -0.1272 
      6 C6         20.9680  -14.3955   23.6271 C.ar      1 <0>       -0.0843 
      7 C7         18.3041  -15.2321   20.9510 C.2       1 <0>        0.6709 
      8 C8         14.1339  -12.5403   19.0492 C.2       1 <0>        0.4867 
      9 C9         15.1166  -12.2149   17.9625 C.2       1 <0>        0.5883 
     10 C10        15.4664  -16.0202   19.6658 C.2       1 <0>        0.6572 
     11 C11        13.4487  -11.8394   13.3285 C.3       1 <0>       -0.0802 
     12 C12        13.6622  -13.2447   13.8847 C.3       1 <0>       -0.0765 
     13 C13        13.7809  -10.7628   14.3583 C.3       1 <0>       -0.0774 
     14 C14        15.0720  -13.4174   14.4517 C.3       1 <0>       -0.0953 
     15 C15        15.1906  -10.9411   14.9240 C.3       1 <0>       -0.0906 
     16 C16        16.8441  -18.0524   19.1576 C.3       1 <0>       -0.0871 
     17 C17        19.9383  -16.7350   22.1537 C.3       1 <0>       -0.0716 
     18 C18        17.0421  -18.6119   20.5649 C.3       1 <0>        0.1333 
     19 C19        19.1920  -17.8807   21.4485 C.3       1 <0>        0.1246 
     20 C20        16.8349  -16.5537   19.3720 C.3       1 <0>        0.0606 
     21 C21        15.4312  -12.3467   15.4907 C.3       1 <0>        0.1012 
     22 C22        19.1609  -15.3990   22.2138 C.3       1 <0>        0.1554 
     23 C23        20.1333  -14.2275   22.3916 C.3       1 <0>       -0.0356 
     24 C24        12.2331  -13.3888   21.2805 C.3       1 <0>       -0.0795 
     25 C25        11.8100  -13.4076   22.7540 C.3       1 <0>       -0.1203 
     26 C26        13.6088  -14.0243   21.0369 C.3       1 <0>       -0.0920 
     27 C27        10.4522  -12.7514   23.0019 C.3       1 <0>        0.1502 
     28 C28        14.0707  -13.9645   19.5759 C.3       1 <0>        0.0224 
     29 N1         17.6258  -16.3814   20.5755 N.am      1 <0>       -0.3553 
     30 N2         17.7699  -17.5717   21.3122 N.3       1 <0>       -0.4320 
     31 N3         18.2185  -15.3962   23.3423 N.3       1 <0>       -0.9031 
     32 N4         10.1263  -12.7900   24.4237 N.3       1 <0>       -0.9068 
     33 N5         14.6469  -12.5421   16.7120 N.am      1 <0>       -0.5526 
     34 N6         15.3048  -14.6763   19.3719 N.am      1 <0>       -0.5576 
     35 O1         18.2252  -14.1639   20.3446 O.2       1 <0>       -0.6710 
     36 O2         13.3771  -11.6401   19.3899 O.2       1 <0>       -0.4901 
     37 O3         16.1906  -11.7355   18.2875 O.2       1 <0>       -0.5902 
     38 O4         14.6120  -16.7689   20.1252 O.2       1 <0>       -0.5833 
     39 H1         23.1190  -14.8283   26.8109 H         1 <0>        0.1320 
     40 H2         20.9482  -13.6338   26.9336 H         1 <0>        0.1324 
     41 H3         23.9099  -15.7452   24.6456 H         1 <0>        0.1328 
     42 H4         19.5687  -13.3543   24.9003 H         1 <0>        0.1324 
     43 H5         22.5380  -15.4711   22.6064 H         1 <0>        0.1434 
     44 H6         14.0805  -11.7004   12.4425 H         1 <0>        0.0405 
     45 H7         12.4095  -11.7268   12.9992 H         1 <0>        0.0421 
     46 H8         12.9204  -13.4449   14.6673 H         1 <0>        0.0362 
     47 H9         13.4930  -13.9827   13.0921 H         1 <0>        0.0439 
     48 H10        13.6938   -9.7729   13.8959 H         1 <0>        0.0350 
     49 H11        13.0474  -10.7973   15.1728 H         1 <0>        0.0428 
     50 H12        15.1623  -14.4172   14.8935 H         1 <0>        0.0663 
     51 H13        15.7937  -13.3684   13.6265 H         1 <0>        0.0466 
     52 H14        15.9191  -10.7497   14.1258 H         1 <0>        0.0493 
     53 H15        15.3647  -10.1866   15.7007 H         1 <0>        0.0520 
     54 H16        17.7039  -18.3289   18.5349 H         1 <0>        0.0915 
     55 H17        15.9351  -18.4343   18.6830 H         1 <0>        0.0601 
     56 H18        20.2097  -17.0485   23.1710 H         1 <0>        0.0688 
     57 H19        20.8897  -16.5815   21.6265 H         1 <0>        0.0630 
     58 H20        16.0640  -18.7516   21.0408 H         1 <0>        0.0807 
     59 H21        17.5406  -19.5875   20.5562 H         1 <0>        0.0380 
     60 H22        19.6513  -18.0547   20.4655 H         1 <0>        0.0484 
     61 H23        19.3275  -18.8013   22.0289 H         1 <0>        0.0697 
     62 H24        17.2581  -15.9894   18.5362 H         1 <0>        0.0843 
     63 H25        16.4799  -12.4535   15.7869 H         1 <0>        0.0831 
     64 H26        19.5633  -13.2980   22.4412 H         1 <0>        0.0704 
     65 H27        20.7708  -14.1589   21.5082 H         1 <0>        0.0718 
     66 H28        11.4731  -13.9339   20.7089 H         1 <0>        0.0606 
     67 H29        12.2240  -12.3553   20.9150 H         1 <0>        0.0458 
     68 H30        11.7707  -14.4551   23.0803 H         1 <0>        0.0375 
     69 H31        12.5807  -12.9175   23.3624 H         1 <0>        0.0392 
     70 H32        13.5811  -15.0708   21.3651 H         1 <0>        0.0606 
     71 H33        14.3579  -13.5167   21.6559 H         1 <0>        0.0579 
     72 H34         9.6708  -13.2703   22.4363 H         1 <0>        0.0571 
     73 H35        10.4631  -11.7063   22.6786 H         1 <0>        0.0503 
     74 H36        13.3317  -14.4810   18.9514 H         1 <0>        0.0993 
     75 H37        17.7727  -16.2534   23.5740 H         1 <0>        0.3700 
     76 H38        17.9152  -14.5156   23.6886 H         1 <0>        0.3660 
     77 H39        10.1309  -13.7476   24.7448 H         1 <0>        0.3465 
     78 H40         9.2103  -12.3905   24.5706 H         1 <0>        0.3446 
     79 H41        13.7145  -12.9369   16.6318 H         1 <0>        0.3148 
     80 H42        16.1000  -14.1657   18.9923 H         1 <0>        0.3220 
@<TRIPOS>BOND
    1     1     2 ar
    2     1     3 ar
    3     2     4 ar
    4     3     5 ar
    5     4     6 ar
    6     5     6 ar
    7     6    23 1
    8     7    22 1
    9     7    29 am
   10     7    35 2
   11     8     9 1
   12     8    28 1
   13     8    36 2
   14     9    33 am
   15     9    37 2
   16    10    20 1
   17    10    34 am
   18    10    38 2
   19    11    12 1
   20    11    13 1
   21    12    14 1
   22    13    15 1
   23    14    21 1
   24    15    21 1
   25    16    18 1
   26    16    20 1
   27    17    19 1
   28    17    22 1
   29    18    30 1
   30    19    30 1
   31    20    29 1
   32    21    33 1
   33    22    23 1
   34    22    31 1
   35    24    25 1
   36    24    26 1
   37    25    27 1
   38    26    28 1
   39    27    32 1
   40    28    34 1
   41    29    30 1
   42     1    39 1
   43     2    40 1
   44     3    41 1
   45     4    42 1
   46     5    43 1
   47    11    44 1
   48    11    45 1
   49    12    46 1
   50    12    47 1
   51    13    48 1
   52    13    49 1
   53    14    50 1
   54    14    51 1
   55    15    52 1
   56    15    53 1
   57    16    54 1
   58    16    55 1
   59    17    56 1
   60    17    57 1
   61    18    58 1
   62    18    59 1
   63    19    60 1
   64    19    61 1
   65    20    62 1
   66    21    63 1
   67    23    64 1
   68    23    65 1
   69    24    66 1
   70    24    67 1
   71    25    68 1
   72    25    69 1
   73    26    70 1
   74    26    71 1
   75    27    72 1
   76    27    73 1
   77    28    74 1
   78    31    75 1
   79    31    76 1
   80    32    77 1
   81    32    78 1
   82    33    79 1
   83    34    80 1
@<TRIPOS>SUBSTRUCTURE
