# Ligand [name]_[conformer]_[binding mode]: 1a4w_ligand_0_0004
# SLIDE Version: 3.3.5
# Time stamp: Tue Jul  7 17:50:20 2009
# Affiscore (kcal/mol), for ranking ligand candidates: -9.798
# Ligand Efficiency ((Affinity Score - Constant Term) / # non-H atoms): -0.109
# ===========================================================================
# Weighted term values
# hydrophobic complementarity term (kcal/mol)       : -5.556 
# polar term (kcal/mol)                             : -0.498 
# unsatisfied polar term (kcal/mol)                 : 1.474 
# constant term (kcal/mol)                          : -5.218 
# ===========================================================================
# protein-ligand hydrophobic contacts         : 81
# protein-ligand H-bond count                 : 4
# protein-ligand salt-bridge count            : 2
# metal-ligand interactions count             : 0
# unsatisfied interfacial polar atom count    : 10
# unsatisfied interfacial charged atom count  : 1
# buried carbons (x 100%)          : 0.862
# remaining vdW collisions         : 4
# total vdW overlap (A)            : 0.913
# anchor fragment translations     : 1
# side-chain mean-field iterations : 10
# ligand side-chain rotations      : 2
# protein side-chain rotations     : 53
# Orientscore (kcal/mol), used by SLIDE to select binding mode: -8.475
# ===========================================================================
# Anchor fragment atoms matched to template:
# ligand atom   33  N4   N.pl3 to template point 37 D
# ligand hydrophobic center  0 to template point 107 H
# ligand hydrophobic center  1 to template point 109 H
# ===========================================================================
#          |Ligand Atom -- Protein Atom|
#          |   #  type  -- RES   # type|
# hbond   1:  30  N.2   -- LYS   60F NZ  (dist: 2.851, D-H-A angle: 138.5)
# hbond   2:  33  N.pl3 -- GLY  219  O   (dist: 3.012, D-H-A angle: 150.2)
# hbond   3:  34  N.pl3 -- GLY  219  O   (dist: 3.138, D-H-A angle: 136.6)
# hbond   4:  37  O.2   -- LYS   60F NZ  (dist: 3.453, D-H-A angle: 148.2)
# salt bridge   1 :  33  N.pl3 -- ASP  189  OD1 (dist: 3.976)
# salt bridge   2 :  33  N.pl3 -- ASP  189  OD2 (dist: 3.534)
# ===========================================================================
@<TRIPOS>MOLECULE
1a4w_ligand_0
   82    85     0     0     0
SMALL
USER_CHARGES
@<TRIPOS>ATOM
      1 C1         18.5719  -16.6575   25.5144 C.ar      1 <0>       -0.0870 
      2 C2         20.8328  -16.6791   21.0467 C.ar      1 <0>       -0.1713 
      3 C3         18.1611  -17.0394   24.2614 C.ar      1 <0>       -0.1696 
      4 C4         21.2493  -16.3650   22.3480 C.ar      1 <0>       -0.0427 
      5 C5         19.8554  -16.1221   25.7462 C.ar      1 <0>       -0.1191 
      6 C6         19.5509  -17.1132   20.8236 C.ar      1 <0>       -0.0014 
      7 C7         18.8000  -13.5679   13.2874 C.2       1 <0>        0.3266 
      8 C8         17.7706  -14.4865   13.2439 C.2       1 <0>       -0.2301 
      9 C9         20.4019  -16.4540   23.4473 C.ar      1 <0>       -0.0777 
     10 C10        19.0496  -16.9265   23.2267 C.ar      1 <0>        0.0707 
     11 C11        20.7574  -16.0516   24.7059 C.ar      1 <0>        0.1351 
     12 C12        18.6874  -17.2452   21.9383 C.ar      1 <0>       -0.3822 
     13 C13        17.4699  -12.6517   14.7291 C.2       1 <0>        0.2787 
     14 C14        17.4153  -12.1844   16.1710 C.2       1 <0>        0.4918 
     15 C15        16.9273  -14.3149   21.5322 C.2       1 <0>        0.6335 
     16 C16        11.7319  -12.6348   23.4078 C.cat     1 <0>        0.6246 
     17 C17        20.2422  -12.7984   19.3569 C.3       1 <0>       -0.0827 
     18 C18        20.2101  -12.7225   20.9633 C.3       1 <0>       -0.0897 
     19 C19        19.2072  -13.8979   18.7293 C.3       1 <0>       -0.0812 
     20 C20        18.8016  -12.5632   21.4726 C.3       1 <0>        0.0887 
     21 C21        17.7622  -13.7022   19.2145 C.3       1 <0>        0.1019 
     22 C22        22.3894  -14.1549   24.2637 C.3       1 <0>        0.1739 
     23 C23        23.3227  -16.2478   25.2208 C.3       1 <0>        0.1729 
     24 C24        16.5855  -12.8963   17.1745 C.3       1 <0>       -0.1818 
     25 C25        17.2353  -12.6230   18.5808 C.3       1 <0>       -0.0973 
     26 C26        13.8078  -14.2571   21.7400 C.3       1 <0>       -0.1272 
     27 C27        14.6375  -14.6168   20.5053 C.3       1 <0>       -0.0814 
     28 C28        12.4264  -13.7897   21.3038 C.3       1 <0>        0.1789 
     29 C29        15.9570  -15.2885   20.8559 C.3       1 <0>        0.1868 
     30 N1         18.6405  -12.4906   14.0898 N.2       1 <0>       -0.5625 
     31 N2         17.8831  -13.5916   20.7661 N.am      1 <0>       -0.4525 
     32 N3         12.5320  -11.5915   23.1810 N.pl3     1 <0>       -0.8420 
     33 N4         10.9378  -12.7004   24.4692 N.pl3     1 <0>       -0.8584 
     34 N5         11.6552  -13.6044   22.5143 N.pl3     1 <0>       -0.7375 
     35 N6         15.7237  -16.3719   21.8597 N.pl3     1 <0>       -0.8915 
     36 N7         21.9797  -15.4171   24.9246 N.pl3     1 <0>       -0.6621 
     37 O1         18.0177  -11.1929   16.4698 O.2       1 <0>       -0.4808 
     38 O2         16.7302  -14.1393   22.7313 O.2       1 <0>       -0.6357 
     39 O3         17.1164  -17.9773   20.1190 O.2       1 <0>       -0.6593 
     40 O4         16.0709  -18.6933   22.3831 O.2       1 <0>       -0.6323 
     41 S1         16.4717  -14.0195   14.2870 S.3       1 <0>       -0.0524 
     42 S2         16.9338  -17.8155   21.5721 S.o2      1 <0>        1.4984 
     43 H1         17.8862  -16.7714   26.3541 H         1 <0>        0.1400 
     44 H2         21.5273  -16.5783   20.2127 H         1 <0>        0.1461 
     45 H3         17.1542  -17.4223   24.0950 H         1 <0>        0.1458 
     46 H4         22.2774  -16.0384   22.5043 H         1 <0>        0.1445 
     47 H5         20.1321  -15.7671   26.7389 H         1 <0>        0.1558 
     48 H6         19.2066  -17.3500   19.8169 H         1 <0>        0.1711 
     49 H7         19.7065  -13.7052   12.6979 H         1 <0>        0.0597 
     50 H8         17.7755  -15.3886   12.6321 H         1 <0>        0.1934 
     51 H9         20.0527  -11.7778   19.0243 H         1 <0>        0.0560 
     52 H10        21.2863  -12.9856   19.1060 H         1 <0>        0.0590 
     53 H11        20.7926  -11.8770   21.3292 H         1 <0>        0.0602 
     54 H12        20.6234  -13.6274   21.4087 H         1 <0>        0.0529 
     55 H13        19.3049  -13.8160   17.6468 H         1 <0>        0.0601 
     56 H14        19.6134  -14.8745   18.9925 H         1 <0>        0.0519 
     57 H15        18.7781  -12.7392   22.5480 H         1 <0>        0.0783 
     58 H16        18.4454  -11.5557   21.2578 H         1 <0>        0.0365 
     59 H17        17.1196  -14.5675   19.0521 H         1 <0>        0.0491 
     60 H18        23.1546  -13.6620   24.8633 H         1 <0>        0.0545 
     61 H19        22.7900  -14.3756   23.2744 H         1 <0>        0.0048 
     62 H20        21.5252  -13.4978   24.1669 H         1 <0>        0.0463 
     63 H21        23.0779  -17.1441   25.7906 H         1 <0>        0.0566 
     64 H22        23.7892  -16.5335   24.2779 H         1 <0>        0.0085 
     65 H23        24.0133  -15.6302   25.7948 H         1 <0>        0.0537 
     66 H24        15.5690  -12.5047   17.2142 H         1 <0>        0.0730 
     67 H25        16.6005  -13.9757   17.0235 H         1 <0>        0.0623 
     68 H26        18.0375  -11.9013   18.4268 H         1 <0>        0.0880 
     69 H27        16.4540  -12.2095   19.2184 H         1 <0>        0.0318 
     70 H28        14.3046  -13.4586   22.2913 H         1 <0>        0.0803 
     71 H29        13.7097  -15.1342   22.3797 H         1 <0>        0.0662 
     72 H30        13.9955  -15.2432   19.8860 H         1 <0>        0.0713 
     73 H31        14.7702  -13.6865   19.9530 H         1 <0>        0.0523 
     74 H32        12.0195  -14.5780   20.6705 H         1 <0>        0.0999 
     75 H33        12.5735  -12.8565   20.7601 H         1 <0>        0.0733 
     76 H34        16.3836  -15.7897   19.9870 H         1 <0>        0.0964 
     77 H35        12.5965  -10.8319   23.8737 H         1 <0>        0.4804 
     78 H36        13.0853  -11.5458   22.3134 H         1 <0>        0.4871 
     79 H37        10.9727  -11.9604   25.1848 H         1 <0>        0.4804 
     80 H38        10.2868  -13.4911   24.5773 H         1 <0>        0.4816 
     81 H39        10.9486  -14.3291   22.7054 H         1 <0>        0.4681 
     82 H40        15.0099  -16.3421   22.6016 H         1 <0>        0.4496 
@<TRIPOS>BOND
    1     1     3 ar
    2     1     5 ar
    3     2     4 ar
    4     2     6 ar
    5     3    10 ar
    6     4     9 ar
    7     5    11 ar
    8     6    12 ar
    9     7     8 2
   10     7    30 1
   11     8    41 1
   12     9    10 ar
   13     9    11 ar
   14    10    12 ar
   15    11    36 1
   16    12    42 1
   17    13    14 1
   18    13    30 2
   19    13    41 1
   20    14    24 1
   21    14    37 2
   22    15    29 1
   23    15    31 am
   24    15    38 2
   25    16    32 1
   26    16    33 1
   27    16    34 1
   28    17    18 1
   29    17    19 1
   30    18    20 1
   31    19    21 1
   32    20    31 1
   33    21    25 1
   34    21    31 1
   35    22    36 1
   36    23    36 1
   37    24    25 1
   38    26    27 1
   39    26    28 1
   40    27    29 1
   41    28    34 1
   42    29    35 1
   43    35    42 1
   44    39    42 2
   45    40    42 2
   46     1    43 1
   47     2    44 1
   48     3    45 1
   49     4    46 1
   50     5    47 1
   51     6    48 1
   52     7    49 1
   53     8    50 1
   54    17    51 1
   55    17    52 1
   56    18    53 1
   57    18    54 1
   58    19    55 1
   59    19    56 1
   60    20    57 1
   61    20    58 1
   62    21    59 1
   63    22    60 1
   64    22    61 1
   65    22    62 1
   66    23    63 1
   67    23    64 1
   68    23    65 1
   69    24    66 1
   70    24    67 1
   71    25    68 1
   72    25    69 1
   73    26    70 1
   74    26    71 1
   75    27    72 1
   76    27    73 1
   77    28    74 1
   78    28    75 1
   79    29    76 1
   80    32    77 1
   81    32    78 1
   82    33    79 1
   83    33    80 1
   84    34    81 1
   85    35    82 1
@<TRIPOS>SUBSTRUCTURE
