# Ligand [name]_[conformer]_[binding mode]: ZINC00538219_21_0005
# SLIDE Version: 3.3.5
# Time stamp: Tue Jul  7 17:54:28 2009
# Affiscore (kcal/mol), for ranking ligand candidates: -7.711
# Ligand Efficiency ((Affinity Score - Constant Term) / # non-H atoms): -0.092
# ===========================================================================
# Weighted term values
# hydrophobic complementarity term (kcal/mol)       : -3.265 
# polar term (kcal/mol)                             : -0.166 
# unsatisfied polar term (kcal/mol)                 : 0.938 
# constant term (kcal/mol)                          : -5.218 
# ===========================================================================
# protein-ligand hydrophobic contacts         : 48
# protein-ligand H-bond count                 : 2
# protein-ligand salt-bridge count            : 0
# metal-ligand interactions count             : 0
# unsatisfied interfacial polar atom count    : 6
# unsatisfied interfacial charged atom count  : 1
# buried carbons (x 100%)          : 0.783
# remaining vdW collisions         : 7
# total vdW overlap (A)            : 1.792
# anchor fragment translations     : 1
# side-chain mean-field iterations : 10
# ligand side-chain rotations      : 0
# protein side-chain rotations     : 11
# Orientscore (kcal/mol), used by SLIDE to select binding mode: -6.279
# ===========================================================================
# Anchor fragment atoms matched to template:
# ligand atom   26  O3   O.3   to template point 35 D
# ligand hydrophobic center  5 to template point 91 H
# ligand hydrophobic center  0 to template point 102 H
# ===========================================================================
#          |Ligand Atom -- Protein Atom|
#          |   #  type  -- RES   # type|
# hbond   1:  26  O.3   -- ALA  190  O   (dist: 2.957, D-H-A angle: 140.7)
# hbond   2:  26  O.3   -- GLY  219  O   (dist: 3.049, D-H-A angle: 151.7)
# ===========================================================================
@<TRIPOS>MOLECULE
ZINC00538219_21
   61    64     0     0     0
SMALL
USER_CHARGES
@<TRIPOS>ATOM
      1 C1         15.2816  -14.0142   22.6126 C.2       1 <0>       -0.1643 
      2 C2         14.0121  -14.2404   22.2292 C.2       1 <0>       -0.1152 
      3 C3         18.1759  -19.8468   20.9400 C.2       1 <0>        0.5542 
      4 C4         19.6788  -21.9740   22.7423 C.2       1 <0>        0.6441 
      5 C5         16.4763  -14.7670   22.1170 C.3       1 <0>       -0.0458 
      6 C6         12.8929  -13.5290   22.9552 C.3       1 <0>       -0.0786 
      7 C7         19.4019  -17.7640   20.3143 C.3       1 <0>       -0.0783 
      8 C8         18.7067  -16.4717   20.7798 C.3       1 <0>       -0.0760 
      9 C9         14.5146  -17.5452   20.1278 C.3       1 <0>       -0.0738 
     10 C10        11.1388  -14.9199   21.7477 C.3       1 <0>       -0.1101 
     11 C11        12.2900  -15.9204   21.5762 C.3       1 <0>       -0.0725 
     12 C12        15.6632  -18.5667   20.0426 C.3       1 <0>       -0.0700 
     13 C13        18.2858  -18.7556   19.9137 C.3       1 <0>       -0.1600 
     14 C14        16.1854  -15.7662   20.9855 C.3       1 <0>       -0.0464 
     15 C15        14.7704  -16.4037   21.1488 C.3       1 <0>       -0.0483 
     16 C16        17.2455  -16.8732   20.9406 C.3       1 <0>       -0.0658 
     17 C17        11.5682  -13.5240   22.2017 C.3       1 <0>        0.1457 
     18 C18        13.6493  -15.2911   21.1755 C.3       1 <0>       -0.0019 
     19 C19        17.0161  -17.8804   19.7981 C.3       1 <0>       -0.0348 
     20 C20        19.3682  -23.0374   23.7517 C.3       1 <0>       -0.1486 
     21 C21        13.5152  -14.6088   19.7914 C.3       1 <0>       -0.0828 
     22 C22        17.0179  -17.2441   18.3816 C.3       1 <0>       -0.0861 
     23 C23        19.1307  -19.7637   22.1120 C.3       1 <0>        0.0407 
     24 O1         17.3515  -20.7524   20.8241 O.2       1 <0>       -0.5199 
     25 O2         20.4851  -22.1082   21.8318 O.2       1 <0>       -0.5360 
     26 O3         10.5435  -12.9849   23.0353 O.3       1 <0>       -0.5968 
     27 O4         18.9344  -20.8493   22.9930 O.3       1 <0>       -0.4351 
     28 H1         15.4779  -13.2803   23.3932 H         1 <0>        0.1232 
     29 H2         17.2348  -14.0506   21.7792 H         1 <0>        0.0494 
     30 H3         16.9055  -15.2924   22.9798 H         1 <0>        0.0491 
     31 H4         12.7416  -14.0182   23.9278 H         1 <0>        0.0584 
     32 H5         13.1741  -12.4929   23.1853 H         1 <0>        0.0575 
     33 H6         20.0471  -17.5425   19.4563 H         1 <0>        0.0457 
     34 H7         20.0415  -18.1644   21.1090 H         1 <0>        0.0499 
     35 H8         19.1403  -16.0971   21.7124 H         1 <0>        0.0442 
     36 H9         18.8199  -15.6892   20.0206 H         1 <0>        0.0492 
     37 H10        14.3464  -17.1170   19.1326 H         1 <0>        0.0448 
     38 H11        13.6013  -18.0888   20.3927 H         1 <0>        0.0428 
     39 H12        10.6055  -14.8182   20.7933 H         1 <0>        0.0479 
     40 H13        10.4013  -15.3461   22.4400 H         1 <0>        0.0569 
     41 H14        12.4121  -16.4623   22.5246 H         1 <0>        0.0469 
     42 H15        11.9736  -16.6681   20.8395 H         1 <0>        0.0411 
     43 H16        15.6781  -19.1327   20.9820 H         1 <0>        0.0579 
     44 H17        15.4535  -19.2892   19.2448 H         1 <0>        0.0463 
     45 H18        18.5289  -19.2532   18.9679 H         1 <0>        0.0847 
     46 H19        16.2084  -15.2131   20.0366 H         1 <0>        0.0599 
     47 H20        14.7614  -16.8912   22.1378 H         1 <0>        0.0471 
     48 H21        17.1777  -17.4150   21.8985 H         1 <0>        0.0436 
     49 H22        11.6513  -12.8672   21.3277 H         1 <0>        0.0719 
     50 H23        18.3128  -23.3133   23.6869 H         1 <0>        0.0768 
     51 H24        19.6122  -22.6792   24.7550 H         1 <0>        0.0745 
     52 H25        19.9738  -23.9241   23.5423 H         1 <0>        0.0833 
     53 H26        14.4741  -14.6166   19.2646 H         1 <0>        0.0367 
     54 H27        12.7788  -15.1323   19.1745 H         1 <0>        0.0386 
     55 H28        13.1931  -13.5693   19.9049 H         1 <0>        0.0366 
     56 H29        18.0222  -17.2733   17.9484 H         1 <0>        0.0425 
     57 H30        16.3397  -17.7860   17.7157 H         1 <0>        0.0358 
     58 H31        16.6936  -16.2003   18.4288 H         1 <0>        0.0404 
     59 H32        18.9700  -18.8279   22.6543 H         1 <0>        0.0894 
     60 H33        20.1574  -19.8023   21.7386 H         1 <0>        0.0882 
     61 H34        10.2521  -13.6545   23.6585 H         1 <0>        0.4014 
@<TRIPOS>BOND
    1     1     2 2
    2     1     5 1
    3     2     6 1
    4     2    18 1
    5     3    13 1
    6     3    23 1
    7     3    24 2
    8     4    20 1
    9     4    25 2
   10     4    27 1
   11     5    14 1
   12     6    17 1
   13     7     8 1
   14     7    13 1
   15     8    16 1
   16     9    12 1
   17     9    15 1
   18    10    11 1
   19    10    17 1
   20    11    18 1
   21    12    19 1
   22    13    19 1
   23    14    15 1
   24    14    16 1
   25    15    18 1
   26    16    19 1
   27    17    26 1
   28    18    21 1
   29    19    22 1
   30    23    27 1
   31     1    28 1
   32     5    29 1
   33     5    30 1
   34     6    31 1
   35     6    32 1
   36     7    33 1
   37     7    34 1
   38     8    35 1
   39     8    36 1
   40     9    37 1
   41     9    38 1
   42    10    39 1
   43    10    40 1
   44    11    41 1
   45    11    42 1
   46    12    43 1
   47    12    44 1
   48    13    45 1
   49    14    46 1
   50    15    47 1
   51    16    48 1
   52    17    49 1
   53    20    50 1
   54    20    51 1
   55    20    52 1
   56    21    53 1
   57    21    54 1
   58    21    55 1
   59    22    56 1
   60    22    57 1
   61    22    58 1
   62    23    59 1
   63    23    60 1
   64    26    61 1
@<TRIPOS>SUBSTRUCTURE
