# Ligand [name]_[conformer]_[binding mode]: ZINC00092235_45_0007
# SLIDE Version: 3.3.5
# Time stamp: Tue Jul  7 17:54:27 2009
# Affiscore (kcal/mol), for ranking ligand candidates: -8.584
# Ligand Efficiency ((Affinity Score - Constant Term) / # non-H atoms): -0.129
# ===========================================================================
# Weighted term values
# hydrophobic complementarity term (kcal/mol)       : -4.891 
# polar term (kcal/mol)                             : -0.083 
# unsatisfied polar term (kcal/mol)                 : 1.608 
# constant term (kcal/mol)                          : -5.218 
# ===========================================================================
# protein-ligand hydrophobic contacts         : 103
# protein-ligand H-bond count                 : 1
# protein-ligand salt-bridge count            : 0
# metal-ligand interactions count             : 0
# unsatisfied interfacial polar atom count    : 10
# unsatisfied interfacial charged atom count  : 2
# buried carbons (x 100%)          : 0.955
# remaining vdW collisions         : 3
# total vdW overlap (A)            : 0.218
# anchor fragment translations     : 1
# side-chain mean-field iterations : 3
# ligand side-chain rotations      : 0
# protein side-chain rotations     : 7
# Orientscore (kcal/mol), used by SLIDE to select binding mode: -8.036
# ===========================================================================
# Anchor fragment atoms matched to template:
# ligand atom   24  N2   N.pl3 to template point 31 D
# ligand hydrophobic center  0 to template point 98 H
# ligand hydrophobic center  1 to template point 106 H
# ===========================================================================
#          |Ligand Atom -- Protein Atom|
#          |   #  type  -- RES   # type|
# hbond   1:  26  N.4   -- GLY  219  O   (dist: 2.614, D-H-A angle: 140.7)
# ===========================================================================
@<TRIPOS>MOLECULE
ZINC00092235_45
   52    56     0     0     0
SMALL
USER_CHARGES
@<TRIPOS>ATOM
      1 C1         16.2499  -12.4000   16.0972 C.ar      1 <0>       -0.0978 
      2 C2         13.3474   -9.6629   21.7657 C.ar      1 <0>       -0.0984 
      3 C3         17.6138  -12.4730   16.3730 C.ar      1 <0>       -0.0943 
      4 C4         13.2474   -8.8094   22.8625 C.ar      1 <0>       -0.0957 
      5 C5         15.3335  -13.1902   16.8008 C.ar      1 <0>       -0.1265 
      6 C6         12.6240  -10.8603   21.7215 C.ar      1 <0>       -0.1261 
      7 C7         18.1050  -13.3351   17.3578 C.ar      1 <0>       -0.1009 
      8 C8         12.4238   -9.1233   23.9474 C.ar      1 <0>       -0.1004 
      9 C9         16.1670  -15.5721   19.4449 C.2       1 <0>        0.0849 
     10 C10        10.3608  -12.0764   24.3214 C.2       1 <0>        0.0824 
     11 C11        15.8052  -14.0667   17.7980 C.ar      1 <0>       -0.0700 
     12 C12        11.7872  -11.1980   22.8036 C.ar      1 <0>       -0.0695 
     13 C13        15.2034  -14.9842   18.6823 C.2       1 <0>       -0.3121 
     14 C14        10.9365  -12.2807   23.1038 C.2       1 <0>       -0.3108 
     15 C15        17.1772  -14.1188   18.0530 C.ar      1 <0>        0.0626 
     16 C16        11.7065  -10.3234   23.8894 C.ar      1 <0>        0.0622 
     17 C17        11.7743  -15.7027   20.2593 C.3       1 <0>        0.0793 
     18 C18        13.5259  -14.0526   20.9405 C.3       1 <0>        0.0777 
     19 C19        11.3558  -15.8568   21.7104 C.3       1 <0>        0.0735 
     20 C20        13.1067  -14.2072   22.3914 C.3       1 <0>        0.0792 
     21 C21        13.7349  -15.2766   18.7775 C.3       1 <0>        0.2470 
     22 C22        10.6955  -13.4755   22.2290 C.3       1 <0>        0.2493 
     23 N1         17.3679  -15.0409   19.0574 N.pl3     1 <0>       -0.5192 
     24 N2         10.8334  -10.8821   24.7955 N.pl3     1 <0>       -0.5179 
     25 N3         13.2359  -15.3322   20.1948 N.4       1 <0>       -0.7137 
     26 N4         11.6551  -14.6035   22.4942 N.4       1 <0>       -0.7135 
     27 H1         15.8918  -11.7228   15.3267 H         1 <0>        0.1593 
     28 H2         13.9946   -9.3979   20.9342 H         1 <0>        0.1589 
     29 H3         18.3082  -11.8506   15.8149 H         1 <0>        0.1682 
     30 H4         13.8178   -7.8843   22.8763 H         1 <0>        0.1676 
     31 H5         14.2733  -13.1217   16.5743 H         1 <0>        0.1247 
     32 H6         12.7124  -11.5152   20.8594 H         1 <0>        0.1259 
     33 H7         19.1672  -13.3911   17.5712 H         1 <0>        0.1640 
     34 H8         12.3471   -8.4578   24.8009 H         1 <0>        0.1649 
     35 H9         16.1240  -16.3173   20.2273 H         1 <0>        0.1783 
     36 H10         9.6604  -12.6589   24.9038 H         1 <0>        0.1787 
     37 H11        11.6559  -16.6477   19.7191 H         1 <0>        0.1444 
     38 H12        11.2103  -14.9171   19.7443 H         1 <0>        0.1211 
     39 H13        12.9853  -13.2448   20.4348 H         1 <0>        0.1184 
     40 H14        14.6031  -13.8716   20.8654 H         1 <0>        0.1625 
     41 H15        10.2829  -16.0539   21.8040 H         1 <0>        0.1217 
     42 H16        11.9029  -16.6704   22.2002 H         1 <0>        0.1444 
     43 H17        13.6821  -14.9941   22.8922 H         1 <0>        0.1176 
     44 H18        13.2324  -13.2746   22.9512 H         1 <0>        0.1624 
     45 H19        13.1444  -14.5089   18.2660 H         1 <0>        0.1105 
     46 H20        13.4936  -16.2425   18.3209 H         1 <0>        0.1015 
     47 H21         9.6878  -13.8783   22.3776 H         1 <0>        0.1098 
     48 H22        10.7986  -13.2173   21.1695 H         1 <0>        0.1013 
     49 H23        18.2652  -15.2890   19.4508 H         1 <0>        0.4881 
     50 H24        10.5790  -10.4692   25.6822 H         1 <0>        0.4882 
     51 H25        13.7953  -16.0969   20.6084 H         1 <0>        0.4431 
     52 H26        11.4861  -14.8349   23.4896 H         1 <0>        0.4430 
@<TRIPOS>BOND
    1     1     3 ar
    2     1     5 ar
    3     2     4 ar
    4     2     6 ar
    5     3     7 ar
    6     4     8 ar
    7     5    11 ar
    8     6    12 ar
    9     7    15 ar
   10     8    16 ar
   11     9    13 2
   12     9    23 1
   13    10    14 2
   14    10    24 1
   15    11    13 1
   16    11    15 ar
   17    12    14 1
   18    12    16 ar
   19    13    21 1
   20    14    22 1
   21    15    23 1
   22    16    24 1
   23    17    19 1
   24    17    25 1
   25    18    20 1
   26    18    25 1
   27    19    26 1
   28    20    26 1
   29    21    25 1
   30    22    26 1
   31     1    27 1
   32     2    28 1
   33     3    29 1
   34     4    30 1
   35     5    31 1
   36     6    32 1
   37     7    33 1
   38     8    34 1
   39     9    35 1
   40    10    36 1
   41    17    37 1
   42    17    38 1
   43    18    39 1
   44    18    40 1
   45    19    41 1
   46    19    42 1
   47    20    43 1
   48    20    44 1
   49    21    45 1
   50    21    46 1
   51    22    47 1
   52    22    48 1
   53    23    49 1
   54    24    50 1
   55    25    51 1
   56    26    52 1
@<TRIPOS>SUBSTRUCTURE
