# Ligand [name]_[conformer]_[binding mode]: ZINC00171204_5_0005
# SLIDE Version: 3.3.5
# Time stamp: Tue Jul  7 17:54:27 2009
# Affiscore (kcal/mol), for ranking ligand candidates: -8.615
# Ligand Efficiency ((Affinity Score - Constant Term) / # non-H atoms): -0.162
# ===========================================================================
# Weighted term values
# hydrophobic complementarity term (kcal/mol)       : -3.652 
# polar term (kcal/mol)                             : -0.415 
# unsatisfied polar term (kcal/mol)                 : 0.670 
# constant term (kcal/mol)                          : -5.218 
# ===========================================================================
# protein-ligand hydrophobic contacts         : 57
# protein-ligand H-bond count                 : 5
# protein-ligand salt-bridge count            : 0
# metal-ligand interactions count             : 0
# unsatisfied interfacial polar atom count    : 5
# unsatisfied interfacial charged atom count  : 0
# buried carbons (x 100%)          : 1.000
# remaining vdW collisions         : 0
# total vdW overlap (A)            : 0.000
# anchor fragment translations     : 7
# side-chain mean-field iterations : 2
# ligand side-chain rotations      : 0
# protein side-chain rotations     : 4
# Orientscore (kcal/mol), used by SLIDE to select binding mode: -7.474
# ===========================================================================
# Anchor fragment atoms matched to template:
# ligand atom   19  O1   O.2   to template point 19 A
# ligand atom   20  O2   O.3   to template point 34 D
# ligand hydrophobic center  0 to template point 90 H
# ===========================================================================
#          |Ligand Atom -- Protein Atom|
#          |   #  type  -- RES   # type|
# hbond   1:  19  O.2   -- GLY  193  N   (dist: 2.621, D-H-A angle: 148.8)
# hbond   2:  19  O.2   -- SER  195  N   (dist: 3.301, D-H-A angle: 149.3)
# hbond   3:  20  O.3   -- ASP  189  OD2 (dist: 3.032, D-H-A angle: 126.3)
# hbond   4:  20  O.3   -- ALA  190  O   (dist: 3.291, D-H-A angle: 140.4)
# hbond   5:  20  O.3   -- GLY  219  O   (dist: 2.543, D-H-A angle: 177.8)
# ===========================================================================
@<TRIPOS>MOLECULE
ZINC00171204_5
   35    37     0     0     0
SMALL
USER_CHARGES
@<TRIPOS>ATOM
      1 C1         17.6206  -11.4433   14.0305 C.ar      1 <0>       -0.1284 
      2 C2         16.8888  -10.4631   14.7006 C.ar      1 <0>       -0.1217 
      3 C3         17.5954  -12.7630   14.4816 C.ar      1 <0>       -0.1222 
      4 C4         12.5010  -11.0222   22.4200 C.ar      1 <0>       -0.0908 
      5 C5         12.0456  -13.0761   21.2320 C.ar      1 <0>       -0.0628 
      6 C6         16.1318  -10.8025   15.8219 C.ar      1 <0>       -0.1187 
      7 C7         16.8384  -13.1024   15.6030 C.ar      1 <0>       -0.1256 
      8 C8         11.6918  -11.4513   23.4719 C.ar      1 <0>       -0.1555 
      9 C9         11.2363  -13.5051   22.2840 C.ar      1 <0>       -0.2092 
     10 C10        12.6681  -11.8400   21.3130 C.ar      1 <0>       -0.1329 
     11 C11        16.1056  -12.1226   16.2745 C.ar      1 <0>        0.0468 
     12 C12        11.0594  -12.6926   23.4040 C.ar      1 <0>        0.1332 
     13 C13        14.1647  -11.7952   17.7739 C.2       1 <0>        0.6925 
     14 C14        15.5797  -13.4817   18.3442 C.2       1 <0>        0.5548 
     15 C15        13.6098  -12.3951   19.0563 C.3       1 <0>        0.0229 
     16 C16        13.5439  -11.3763   20.1756 C.3       1 <0>       -0.0301 
     17 N1         14.5802  -13.4194   19.3116 N.pl3     1 <0>       -0.5503 
     18 N2         15.3306  -12.4696   17.4221 N.am      1 <0>       -0.3891 
     19 O1         13.6345  -10.8391   17.2197 O.2       1 <0>       -0.5506 
     20 O2         10.2709  -13.1119   24.4312 O.3       1 <0>       -0.4955 
     21 S1         16.7301  -14.6895   18.3887 S.2       1 <0>       -0.4561 
     22 H1         18.2103  -11.1790   13.1575 H         1 <0>        0.1358 
     23 H2         16.9082   -9.4354   14.3495 H         1 <0>        0.1374 
     24 H3         18.1654  -13.5260   13.9596 H         1 <0>        0.1364 
     25 H4         12.9895  -10.0536   22.4818 H         1 <0>        0.1303 
     26 H5         12.1779  -13.7159   20.3634 H         1 <0>        0.1390 
     27 H6         15.5658  -10.0297   16.3362 H         1 <0>        0.1602 
     28 H7         16.8266  -14.1343   15.9455 H         1 <0>        0.1522 
     29 H8         11.5581  -10.8139   24.3416 H         1 <0>        0.1528 
     30 H9         10.7469  -14.4738   22.2255 H         1 <0>        0.1382 
     31 H10        12.6405  -12.8636   18.8658 H         1 <0>        0.0981 
     32 H11        13.1662  -10.4186   19.7914 H         1 <0>        0.0615 
     33 H12        14.5540  -11.1674   20.5548 H         1 <0>        0.0645 
     34 H13        14.5272  -14.1108   20.0532 H         1 <0>        0.3613 
     35 H14        10.2844  -14.0708   24.4748 H         1 <0>        0.4215 
@<TRIPOS>BOND
    1     1     2 ar
    2     1     3 ar
    3     2     6 ar
    4     3     7 ar
    5     4     8 ar
    6     4    10 ar
    7     5     9 ar
    8     5    10 ar
    9     6    11 ar
   10     7    11 ar
   11     8    12 ar
   12     9    12 ar
   13    10    16 1
   14    11    18 1
   15    12    20 1
   16    13    15 1
   17    13    18 am
   18    13    19 2
   19    14    17 1
   20    14    18 1
   21    14    21 2
   22    15    16 1
   23    15    17 1
   24     1    22 1
   25     2    23 1
   26     3    24 1
   27     4    25 1
   28     5    26 1
   29     6    27 1
   30     7    28 1
   31     8    29 1
   32     9    30 1
   33    15    31 1
   34    16    32 1
   35    16    33 1
   36    17    34 1
   37    20    35 1
@<TRIPOS>SUBSTRUCTURE
