# Ligand [name]_[conformer]_[binding mode]: 1tbz_ligand_xtal_0004
# SLIDE Version: 3.3.5
# Time stamp: Tue Jul  7 17:36:04 2009
# Affiscore (kcal/mol), for ranking ligand candidates: -10.757
# Ligand Efficiency ((Affinity Score - Constant Term) / # non-H atoms): -0.146
# ===========================================================================
# Weighted term values
# hydrophobic complementarity term (kcal/mol)       : -6.234 
# polar term (kcal/mol)                             : -0.913 
# unsatisfied polar term (kcal/mol)                 : 1.608 
# constant term (kcal/mol)                          : -5.218 
# ===========================================================================
# protein-ligand hydrophobic contacts         : 115
# protein-ligand H-bond count                 : 7
# protein-ligand salt-bridge count            : 4
# metal-ligand interactions count             : 0
# unsatisfied interfacial polar atom count    : 11
# unsatisfied interfacial charged atom count  : 1
# buried carbons (x 100%)          : 1.000
# remaining vdW collisions         : 6
# total vdW overlap (A)            : 1.535
# anchor fragment translations     : 2
# side-chain mean-field iterations : 4
# ligand side-chain rotations      : 2
# protein side-chain rotations     : 6
# Orientscore (kcal/mol), used by SLIDE to select binding mode: -10.839
# ===========================================================================
# Anchor fragment atoms matched to template:
# ligand atom   54  N5   N.pl3 to template point 31 D
# ligand hydrophobic center 10 to template point 119 H
# ligand atom   36  N3   N.am  to template point 141 D
# ===========================================================================
#          |Ligand Atom -- Protein Atom|
#          |   #  type  -- RES   # type|
# hbond   1:   1  N.3   -- GLY  216  O   (dist: 2.606, D-H-A angle: 168.8)
# hbond   2:   7  O.2   -- GLY  216  N   (dist: 2.996, D-H-A angle: 154.4)
# hbond   3:  36  N.am  -- SER  195  OG  (dist: 3.436, D-H-A angle: 120.0)
# hbond   4:  41  O.2   -- GLY  193  N   (dist: 2.735, D-H-A angle: 130.8)
# hbond   5:  51  N.pl3 -- GLY  219  O   (dist: 3.377, D-H-A angle: 123.4)
# hbond   6:  54  N.pl3 -- ALA  190  O   (dist: 3.087, D-H-A angle: 139.7)
# hbond   7:  57  N.pl3 -- GLY  219  O   (dist: 2.564, D-H-A angle: 176.2)
# salt bridge   1 :  54  N.pl3 -- ASP  189  OD1 (dist: 2.935)
# salt bridge   2 :  54  N.pl3 -- ASP  189  OD2 (dist: 3.902)
# salt bridge   3 :  57  N.pl3 -- ASP  189  OD1 (dist: 3.685)
# salt bridge   4 :  57  N.pl3 -- ASP  189  OD2 (dist: 3.129)
# ===========================================================================
@<TRIPOS>MOLECULE
1tbz_ligand_xtal
   72    75     0     0     0
SMALL
USER_CHARGES
@<TRIPOS>ATOM
      1 N1         16.6555  -16.4664   24.0904 N.3       1 <0>       -0.9015 
      2 H1         15.9405  -15.8925   24.5140 H         1 <0>        0.3614 
      3 H2         16.8353  -17.2679   24.6781 H         1 <0>        0.3622 
      4 C1         17.9185  -15.6631   23.9364 C.3       1 <0>        0.1282 
      5 H3         18.6446  -16.3389   23.4844 H         1 <0>        0.0688 
      6 C2         17.5541  -14.4909   23.0327 C.2       1 <0>        0.6479 
      7 O1         16.4792  -13.9381   23.3053 O.2       1 <0>       -0.6584 
      8 C3         18.3676  -15.2216   25.3354 C.3       1 <0>       -0.0312 
      9 H4         18.4260  -16.0575   26.0325 H         1 <0>        0.0777 
     10 H5         17.6855  -14.4951   25.7770 H         1 <0>        0.0633 
     11 C4         19.7275  -14.5797   25.3199 C.ar      1 <0>       -0.0930 
     12 C5         20.8193  -15.3222   24.8404 C.ar      1 <0>       -0.1377 
     13 H6         20.6702  -16.3434   24.4899 H         1 <0>        0.1303 
     14 C6         19.9151  -13.2918   25.8296 C.ar      1 <0>       -0.1219 
     15 H7         19.0660  -12.7174   26.1998 H         1 <0>        0.1324 
     16 C7         22.1130  -14.7476   24.8111 C.ar      1 <0>       -0.1278 
     17 H8         22.9444  -15.2997   24.3728 H         1 <0>        0.1366 
     18 C8         21.2345  -12.7339   25.8606 C.ar      1 <0>       -0.1260 
     19 H9         21.3923  -11.7415   26.2828 H         1 <0>        0.1357 
     20 C9         22.3275  -13.4569   25.3504 C.ar      1 <0>       -0.1248 
     21 H10        23.3292  -13.0278   25.3702 H         1 <0>        0.1386 
     22 N2         18.3406  -14.1977   22.0274 N.am      1 <0>       -0.4527 
     23 C10        17.9699  -13.1178   21.0520 C.3       1 <0>        0.0528 
     24 H11        17.9659  -12.1511   21.5555 H         1 <0>        0.0771 
     25 C11        16.5825  -13.3906   20.4826 C.2       1 <0>        0.6590 
     26 O2         16.1514  -14.5631   20.3729 O.2       1 <0>       -0.6051 
     27 C12        19.1064  -13.0784   20.0562 C.3       1 <0>       -0.0835 
     28 H12        19.5310  -12.0745   20.0496 H         1 <0>        0.0660 
     29 H13        18.7161  -13.3287   19.0697 H         1 <0>        0.0728 
     30 C13        20.1545  -14.0867   20.4750 C.3       1 <0>       -0.0875 
     31 H14        21.0650  -13.5367   20.7128 H         1 <0>        0.0624 
     32 H15        20.3110  -14.7669   19.6378 H         1 <0>        0.0662 
     33 C14        19.6253  -14.8206   21.6860 C.3       1 <0>        0.0903 
     34 H16        19.4173  -15.8690   21.4724 H         1 <0>        0.0468 
     35 H17        20.2722  -14.6991   22.5549 H         1 <0>        0.0690 
     36 N3         15.7794  -12.3381   20.2773 N.am      1 <0>       -0.5631 
     37 H18        16.1776  -11.4141   20.4975 H         1 <0>        0.3249 
     38 C15        14.4134  -12.3441   19.7809 C.3       1 <0>        0.0192 
     39 H19        13.9906  -13.3432   19.6757 H         1 <0>        0.1101 
     40 C16        14.2573  -11.6955   18.3868 C.2       1 <0>        0.5046 
     41 O3         13.1691  -11.8153   17.7822 O.2       1 <0>       -0.4860 
     42 C17        13.3919  -11.6335   20.6819 C.3       1 <0>       -0.0925 
     43 H20        12.4326  -11.4631   20.1931 H         1 <0>        0.0786 
     44 H21        13.7250  -10.6517   21.0184 H         1 <0>        0.0616 
     45 C18        13.0724  -12.4000   21.9359 C.3       1 <0>       -0.1048 
     46 H22        13.9498  -12.4744   22.5784 H         1 <0>        0.0954 
     47 H23        12.7402  -13.4105   21.6979 H         1 <0>        0.0616 
     48 C19        12.0014  -11.7334   22.6985 C.3       1 <0>        0.2019 
     49 H24        11.1598  -11.4673   22.0590 H         1 <0>        0.0683 
     50 H25        12.3550  -10.8151   23.1673 H         1 <0>        0.0676 
     51 N4         11.4968  -12.5713   23.7358 N.pl3     1 <0>       -0.7573 
     52 H26        11.8405  -13.5423   23.7283 H         1 <0>        0.4811 
     53 C20        10.6571  -12.2778   24.6965 C.cat     1 <0>        0.6367 
     54 N5         10.2555  -10.9817   24.7410 N.pl3     1 <0>       -0.8568 
     55 H27         9.5951  -10.6718   25.4682 H         1 <0>        0.4812 
     56 H28        10.6113  -10.3082   24.0476 H         1 <0>        0.4833 
     57 N6         10.0466  -13.2570   25.3620 N.pl3     1 <0>       -0.8656 
     58 H29         9.3852  -13.0309   26.1185 H         1 <0>        0.4806 
     59 H30        10.2357  -14.2400   25.1199 H         1 <0>        0.4811 
     60 C21        15.5570  -12.3383   17.1964 C.2       1 <0>        0.2696 
     61 N7         16.7293  -12.0456   16.7821 N.2       1 <0>       -0.4916 
     62 C22        17.1560  -12.9668   15.8549 C.ar      1 <0>        0.0703 
     63 S1         14.9156  -13.9485   16.6740 S.3       1 <0>        0.0301 
     64 C23        16.1707  -13.8857   15.4304 C.ar      1 <0>       -0.0840 
     65 C24        16.5013  -14.9158   14.5229 C.ar      1 <0>       -0.0911 
     66 H31        15.7908  -15.7133   14.3054 H         1 <0>        0.1465 
     67 C25        17.7566  -14.8936   13.9087 C.ar      1 <0>       -0.1054 
     68 H32        18.1228  -15.7570   13.3533 H         1 <0>        0.1454 
     69 C26        18.5538  -13.6998   14.0290 C.ar      1 <0>       -0.1262 
     70 H33        19.3947  -13.5396   13.3541 H         1 <0>        0.1459 
     71 C27        18.2593  -12.7577   14.9936 C.ar      1 <0>       -0.0700 
     72 H34        18.8709  -11.8607   15.0912 H         1 <0>        0.1542 
@<TRIPOS>BOND
    1     1     4 1
    2     1     2 1
    3     1     3 1
    4     4     6 1
    5     4     8 1
    6     4     5 1
    7     6     7 2
    8     6    22 am
    9     8    11 1
   10     8     9 1
   11     8    10 1
   12    11    12 ar
   13    11    14 ar
   14    12    16 ar
   15    12    13 1
   16    14    18 ar
   17    14    15 1
   18    16    20 ar
   19    16    17 1
   20    18    20 ar
   21    18    19 1
   22    20    21 1
   23    22    23 1
   24    22    33 1
   25    23    25 1
   26    23    27 1
   27    23    24 1
   28    25    26 2
   29    25    36 am
   30    27    30 1
   31    27    28 1
   32    27    29 1
   33    30    33 1
   34    30    31 1
   35    30    32 1
   36    33    34 1
   37    33    35 1
   38    36    38 1
   39    36    37 1
   40    38    40 1
   41    38    42 1
   42    38    39 1
   43    40    41 2
   44    40    60 1
   45    42    45 1
   46    42    43 1
   47    42    44 1
   48    45    48 1
   49    45    46 1
   50    45    47 1
   51    48    51 1
   52    48    49 1
   53    48    50 1
   54    51    53 1
   55    51    52 1
   56    53    54 1
   57    53    57 1
   58    54    55 1
   59    54    56 1
   60    57    58 1
   61    57    59 1
   62    60    61 2
   63    60    63 1
   64    61    62 1
   65    62    64 ar
   66    62    71 ar
   67    63    64 1
   68    64    65 ar
   69    65    67 ar
   70    65    66 1
   71    67    69 ar
   72    67    68 1
   73    69    71 ar
   74    69    70 1
   75    71    72 1
@<TRIPOS>SUBSTRUCTURE
