# Ligand [name]_[conformer]_[binding mode]: ZINC00092235_0002
# SLIDE Version: 3.3.5
# Time stamp: Tue Jul  7 17:36:04 2009
# Affiscore (kcal/mol), for ranking ligand candidates: -7.443
# Ligand Efficiency ((Affinity Score - Constant Term) / # non-H atoms): -0.086
# ===========================================================================
# Weighted term values
# hydrophobic complementarity term (kcal/mol)       : -3.699 
# polar term (kcal/mol)                             : -0.000 
# unsatisfied polar term (kcal/mol)                 : 1.474 
# constant term (kcal/mol)                          : -5.218 
# ===========================================================================
# protein-ligand hydrophobic contacts         : 63
# protein-ligand H-bond count                 : 0
# protein-ligand salt-bridge count            : 0
# metal-ligand interactions count             : 0
# unsatisfied interfacial polar atom count    : 9
# unsatisfied interfacial charged atom count  : 2
# buried carbons (x 100%)          : 0.773
# remaining vdW collisions         : 0
# total vdW overlap (A)            : 0.000
# anchor fragment translations     : 0
# side-chain mean-field iterations : 2
# ligand side-chain rotations      : 0
# protein side-chain rotations     : 3
# Orientscore (kcal/mol), used by SLIDE to select binding mode: -6.507
# ===========================================================================
# Anchor fragment atoms matched to template:
# ligand atom   18  N2   N.pl3 to template point 35 D
# ligand hydrophobic center 18 to template point 112 H
# ligand hydrophobic center  0 to template point 132 H
# ===========================================================================
#          |Ligand Atom -- Protein Atom|
#          |   #  type  -- RES   # type|
# ===========================================================================
@<TRIPOS>MOLECULE
ZINC00092235
   52    56     0     0     0
SMALL
USER_CHARGES
@<TRIPOS>ATOM
      1 C1         18.5949  -18.0649   26.1319 C.ar      1 <0>       -0.0978 
      2 C2         19.8697  -17.5682   26.3910 C.ar      1 <0>       -0.0943 
      3 C3         20.6244  -16.9635   25.3825 C.ar      1 <0>       -0.1009 
      4 C4         20.0530  -16.8759   24.1078 C.ar      1 <0>        0.0626 
      5 C5         18.7779  -17.3639   23.8147 C.ar      1 <0>       -0.0700 
      6 C6         18.0371  -17.9702   24.8518 C.ar      1 <0>       -0.1265 
      7 C7         18.5261  -17.0993   22.4285 C.2       1 <0>       -0.3121 
      8 C8         19.6515  -16.4703   21.9320 C.2       1 <0>        0.0849 
      9 N1         20.5599  -16.3418   22.9469 N.pl3     1 <0>       -0.5192 
     10 C9         17.2965  -17.4344   21.6570 C.3       1 <0>        0.2470 
     11 C10        15.3783  -16.5938   20.2837 C.3       1 <0>        0.0793 
     12 C11        14.5947  -15.3524   19.8822 C.3       1 <0>        0.0735 
     13 C12        15.0035  -14.3635   22.1398 C.3       1 <0>        0.0792 
     14 C13        15.7923  -15.6035   22.5397 C.3       1 <0>        0.0777 
     15 C14        13.0794  -13.5426   20.7193 C.3       1 <0>        0.2493 
     16 C15        12.1898  -13.0600   21.8125 C.2       1 <0>       -0.3108 
     17 C16        11.0597  -13.7001   22.2836 C.2       1 <0>        0.0824 
     18 N2         10.5193  -12.9435   23.2873 N.pl3     1 <0>       -0.5179 
     19 C17        11.2744  -11.8124   23.4878 C.ar      1 <0>        0.0622 
     20 C18        12.3295  -11.8536   22.5741 C.ar      1 <0>       -0.0695 
     21 C19        13.2596  -10.7921   22.5751 C.ar      1 <0>       -0.1261 
     22 C20        13.1005   -9.7382   23.4823 C.ar      1 <0>       -0.0984 
     23 C21        12.0368   -9.7274   24.3808 C.ar      1 <0>       -0.0957 
     24 C22        11.1019  -10.7656   24.4007 C.ar      1 <0>       -0.1004 
     25 H1         21.4732  -15.9174   22.8584 H         1 <0>        0.4881 
     26 H2          9.6846  -13.1790   23.8067 H         1 <0>        0.4882 
     27 H3         18.0262  -18.5322   26.9317 H         1 <0>        0.1593 
     28 H4         20.2855  -17.6521   27.3920 H         1 <0>        0.1682 
     29 H5         21.6179  -16.5777   25.5857 H         1 <0>        0.1640 
     30 H6         17.0411  -18.3640   24.6699 H         1 <0>        0.1247 
     31 H7         19.8860  -16.1042   20.9416 H         1 <0>        0.1783 
     32 H8         16.6602  -18.1510   22.1878 H         1 <0>        0.1105 
     33 H9         17.5893  -17.8876   20.7021 H         1 <0>        0.1015 
     34 H10        15.9021  -17.0079   19.4162 H         1 <0>        0.1444 
     35 H11        14.7313  -17.3618   20.7223 H         1 <0>        0.1211 
     36 H12        15.2369  -14.5958   19.4173 H         1 <0>        0.1217 
     37 H13        13.7872  -15.6206   19.1934 H         1 <0>        0.1444 
     38 H14        15.6488  -13.5921   21.7047 H         1 <0>        0.1176 
     39 H15        14.4852  -13.9583   23.0134 H         1 <0>        0.1624 
     40 H16        15.1532  -16.3600   23.0088 H         1 <0>        0.1184 
     41 H17        16.5953  -15.3241   23.2276 H         1 <0>        0.1625 
     42 H18        13.7457  -12.7539   20.3527 H         1 <0>        0.1098 
     43 H19        12.4592  -13.8768   19.8786 H         1 <0>        0.1013 
     44 H20        10.5911  -14.6295   21.9894 H         1 <0>        0.1787 
     45 H21        14.0961  -10.7819   21.8822 H         1 <0>        0.1259 
     46 H22        13.8155   -8.9194   23.4843 H         1 <0>        0.1589 
     47 H23        11.9303   -8.8992   25.0772 H         1 <0>        0.1676 
     48 H24        10.2730  -10.7553   25.1008 H         1 <0>        0.1649 
     49 N3         16.4247  -16.2331   21.3162 N.4       1 <0>       -0.7137 
     50 H25        17.0511  -15.5350   20.8911 H         1 <0>        0.4431 
     51 N4         13.9592  -14.7245   21.1041 N.4       1 <0>       -0.7135 
     52 H26        13.3315  -15.4261   21.5214 H         1 <0>        0.4430 
@<TRIPOS>BOND
    1     1     6 ar
    2     1     2 ar
    3     1    27 1
    4     2     3 ar
    5     2    28 1
    6     3     4 ar
    7     3    29 1
    8     4     9 1
    9     4     5 ar
   10     5     6 ar
   11     5     7 1
   12     6    30 1
   13     7     8 2
   14     7    10 1
   15     8     9 1
   16     8    31 1
   17     9    25 1
   18    10    32 1
   19    10    33 1
   20    10    49 1
   21    11    12 1
   22    11    34 1
   23    11    35 1
   24    11    49 1
   25    12    36 1
   26    12    37 1
   27    12    51 1
   28    13    14 1
   29    13    38 1
   30    13    39 1
   31    13    51 1
   32    14    40 1
   33    14    41 1
   34    14    49 1
   35    15    16 1
   36    15    42 1
   37    15    43 1
   38    15    51 1
   39    16    20 1
   40    16    17 2
   41    17    18 1
   42    17    44 1
   43    18    19 1
   44    18    26 1
   45    19    24 ar
   46    19    20 ar
   47    20    21 ar
   48    21    22 ar
   49    21    45 1
   50    22    23 ar
   51    22    46 1
   52    23    24 ar
   53    23    47 1
   54    24    48 1
   55    49    50 1
   56    51    52 1
@<TRIPOS>SUBSTRUCTURE
