# Ligand [name]_[conformer]_[binding mode]: 1a61_ligand_xtal_0002
# SLIDE Version: 3.3.5
# Time stamp: Tue Jul  7 17:30:02 2009
# Affiscore (kcal/mol), for ranking ligand candidates: -9.452
# Ligand Efficiency ((Affinity Score - Constant Term) / # non-H atoms): -0.118
# ===========================================================================
# Weighted term values
# hydrophobic complementarity term (kcal/mol)       : -4.176 
# polar term (kcal/mol)                             : -0.996 
# unsatisfied polar term (kcal/mol)                 : 0.938 
# constant term (kcal/mol)                          : -5.218 
# ===========================================================================
# protein-ligand hydrophobic contacts         : 54
# protein-ligand H-bond count                 : 8
# protein-ligand salt-bridge count            : 4
# metal-ligand interactions count             : 0
# unsatisfied interfacial polar atom count    : 7
# unsatisfied interfacial charged atom count  : 0
# buried carbons (x 100%)          : 0.875
# remaining vdW collisions         : 0
# total vdW overlap (A)            : 0.000
# anchor fragment translations     : 1
# side-chain mean-field iterations : 4
# ligand side-chain rotations      : 0
# protein side-chain rotations     : 7
# Orientscore (kcal/mol), used by SLIDE to select binding mode: -9.141
# ===========================================================================
# Anchor fragment atoms matched to template:
# ligand atom   44  O3   O.2   to template point 19 A
# ligand atom   57  N6   N.pl3 to template point 31 D
# ligand atom   17  O1   O.2   to template point 74 A
# ===========================================================================
#          |Ligand Atom -- Protein Atom|
#          |   #  type  -- RES   # type|
# hbond   1:  12  N.3   -- GLY  216  O   (dist: 2.945, D-H-A angle: 163.5)
# hbond   2:  17  O.2   -- GLY  216  N   (dist: 3.467, D-H-A angle: 171.9)
# hbond   3:  44  O.2   -- GLY  193  N   (dist: 2.603, D-H-A angle: 136.7)
# hbond   4:  44  O.2   -- SER  195  N   (dist: 3.090, D-H-A angle: 153.8)
# hbond   5:  54  N.pl3 -- GLY  219  O   (dist: 3.455, D-H-A angle: 124.7)
# hbond   6:  57  N.pl3 -- ALA  190  O   (dist: 3.181, D-H-A angle: 129.9)
# hbond   7:  60  N.pl3 -- ALA  190  O   (dist: 3.125, D-H-A angle: 132.5)
# hbond   8:  60  N.pl3 -- GLY  219  O   (dist: 2.803, D-H-A angle: 162.0)
# salt bridge   1 :  57  N.pl3 -- ASP  189  OD1 (dist: 3.609)
# salt bridge   2 :  57  N.pl3 -- ASP  189  OD2 (dist: 3.924)
# salt bridge   3 :  60  N.pl3 -- ASP  189  OD1 (dist: 3.788)
# salt bridge   4 :  60  N.pl3 -- ASP  189  OD2 (dist: 2.691)
# ===========================================================================
@<TRIPOS>MOLECULE
1a61_ligand_xtal
   69    72     0     0     0
SMALL
USER_CHARGES
@<TRIPOS>ATOM
      1 C1         18.8633  -16.3679   24.6007 C.ar      1 <0>       -0.0903 
      2 C2         19.8120  -17.4305   24.5852 C.ar      1 <0>       -0.1267 
      3 H1         19.4967  -18.4538   24.3814 H         1 <0>        0.1358 
      4 C3         21.1679  -17.1328   24.8388 C.ar      1 <0>       -0.1287 
      5 H2         21.8759  -17.9576   24.9202 H         1 <0>        0.1386 
      6 C4         21.6434  -15.8266   24.9901 C.ar      1 <0>       -0.1225 
      7 H3         22.7069  -15.6140   25.0987 H         1 <0>        0.1394 
      8 C5         20.6863  -14.8061   24.9953 C.ar      1 <0>       -0.1290 
      9 H4         21.0110  -13.7822   25.1805 H         1 <0>        0.1355 
     10 C6         19.2965  -15.0581   24.7660 C.ar      1 <0>       -0.1301 
     11 H5         18.5862  -14.2325   24.7215 H         1 <0>        0.1329 
     12 N1         15.2623  -17.1291   23.0000 N.3       1 <0>       -0.8958 
     13 H6         14.8643  -16.5451   23.7215 H         1 <0>        0.3564 
     14 H7         15.1168  -18.1005   23.2354 H         1 <0>        0.3631 
     15 N2         17.4415  -15.2710   21.1607 N.am      1 <0>       -0.3397 
     16 N3         18.3639  -16.1811   20.5007 N.3       1 <0>       -0.4280 
     17 O1         15.8892  -14.6499   22.7140 O.2       1 <0>       -0.7034 
     18 C7         17.4333  -16.9379   24.3391 C.3       1 <0>       -0.0348 
     19 H8         16.7641  -16.4001   25.0107 H         1 <0>        0.0597 
     20 H9         17.4846  -18.0030   24.5649 H         1 <0>        0.0764 
     21 C8         16.6905  -15.5053   22.2005 C.2       1 <0>        0.6697 
     22 C9         16.7111  -16.8597   22.8906 C.3       1 <0>        0.1544 
     23 C10        17.5359  -17.8976   22.1790 C.3       1 <0>       -0.0729 
     24 H10        16.8494  -18.4998   21.5839 H         1 <0>        0.0708 
     25 H11        18.0338  -18.4919   22.9451 H         1 <0>        0.0695 
     26 C11        18.6478  -17.4376   21.2088 C.3       1 <0>        0.1188 
     27 H12        19.5575  -17.3008   21.7935 H         1 <0>        0.0537 
     28 H13        18.7815  -18.2241   20.4662 H         1 <0>        0.0780 
     29 C12        19.4088  -15.2647   20.0522 C.3       1 <0>        0.1286 
     30 H14        20.1398  -15.7371   19.3959 H         1 <0>        0.0871 
     31 H15        19.9852  -14.8377   20.8729 H         1 <0>        0.0450 
     32 C13        18.3944  -14.2418   19.3231 C.3       1 <0>       -0.0858 
     33 H16        17.8481  -14.7124   18.5057 H         1 <0>        0.0869 
     34 H17        18.9098  -13.3817   18.8955 H         1 <0>        0.0684 
     35 C14        17.5474  -13.9104   20.4992 C.3       1 <0>        0.0588 
     36 H18        18.0087  -13.1759   21.1593 H         1 <0>        0.0775 
     37 C15        16.2552  -13.8197   19.9121 C.2       1 <0>        0.6666 
     38 O2         15.6552  -14.8147   19.2883 O.2       1 <0>       -0.5830 
     39 N4         15.2164  -12.8060   19.9487 N.am      1 <0>       -0.5612 
     40 H19        15.3712  -12.3816   20.8744 H         1 <0>        0.3200 
     41 C16        14.0711  -12.0226   19.4482 C.3       1 <0>        0.0258 
     42 H20        13.2191  -12.6964   19.3585 H         1 <0>        0.1037 
     43 C17        14.2553  -11.3629   18.1050 C.2       1 <0>        0.4889 
     44 O3         13.3704  -10.7378   17.4828 O.2       1 <0>       -0.4983 
     45 C18        13.2070  -11.2907   20.4607 C.3       1 <0>       -0.0887 
     46 H21        12.3578  -10.8612   19.9291 H         1 <0>        0.0764 
     47 H22        13.8148  -10.5108   20.9194 H         1 <0>        0.0614 
     48 C19        12.7466  -12.2961   21.4938 C.3       1 <0>       -0.1021 
     49 H23        13.6195  -12.7583   21.9546 H         1 <0>        0.0949 
     50 H24        12.1394  -13.0574   21.0040 H         1 <0>        0.0605 
     51 C20        11.9267  -11.5831   22.5461 C.3       1 <0>        0.1981 
     52 H25        11.0607  -11.0990   22.0947 H         1 <0>        0.0694 
     53 H26        12.5238  -10.8203   23.0458 H         1 <0>        0.0679 
     54 N5         11.4540  -12.5217   23.5483 N.pl3     1 <0>       -0.7556 
     55 H27        11.7437  -13.5065   23.4634 H         1 <0>        0.4804 
     56 C21        10.6616  -12.1835   24.5800 C.cat     1 <0>        0.6359 
     57 N6         10.4531  -10.8378   24.6184 N.pl3     1 <0>       -0.8561 
     58 H28         9.8632  -10.4289   25.3572 H         1 <0>        0.4805 
     59 H29        10.8854  -10.2292   23.9088 H         1 <0>        0.4837 
     60 N7          9.6043  -12.9801   24.9045 N.pl3     1 <0>       -0.8670 
     61 H30         8.9924  -12.7276   25.6937 H         1 <0>        0.4813 
     62 H31         9.4170  -13.8344   24.3605 H         1 <0>        0.4809 
     63 C22        15.0600  -12.0410   16.9523 C.2       1 <0>        0.2810 
     64 N8         16.4358  -11.9890   16.7417 N.2       1 <0>       -0.6127 
     65 C23        17.1520  -12.5524   15.6424 C.2       1 <0>        0.3251 
     66 H32        18.2247  -12.5269   15.4509 H         1 <0>        0.0509 
     67 C24        16.1776  -13.1274   14.8935 C.2       1 <0>       -0.2473 
     68 H33        16.3946  -13.6256   13.9486 H         1 <0>        0.1932 
     69 S1         14.5479  -13.0221   15.5344 S.3       1 <0>        0.0283 
@<TRIPOS>BOND
    1     1     2 ar
    2     1    10 ar
    3     1    18 1
    4     2     4 ar
    5     2     3 1
    6     4     6 ar
    7     4     5 1
    8     6     8 ar
    9     6     7 1
   10     8    10 ar
   11     8     9 1
   12    10    11 1
   13    12    22 1
   14    12    13 1
   15    12    14 1
   16    15    16 1
   17    15    21 am
   18    15    35 1
   19    16    26 1
   20    16    29 1
   21    17    21 2
   22    18    22 1
   23    18    19 1
   24    18    20 1
   25    21    22 1
   26    22    23 1
   27    23    26 1
   28    23    24 1
   29    23    25 1
   30    26    27 1
   31    26    28 1
   32    29    32 1
   33    29    30 1
   34    29    31 1
   35    32    35 1
   36    32    33 1
   37    32    34 1
   38    35    37 1
   39    35    36 1
   40    37    38 2
   41    37    39 am
   42    39    41 1
   43    39    40 1
   44    41    43 1
   45    41    45 1
   46    41    42 1
   47    43    44 2
   48    43    63 1
   49    45    48 1
   50    45    46 1
   51    45    47 1
   52    48    51 1
   53    48    49 1
   54    48    50 1
   55    51    54 1
   56    51    52 1
   57    51    53 1
   58    54    56 1
   59    54    55 1
   60    56    57 1
   61    56    60 1
   62    57    58 1
   63    57    59 1
   64    60    61 1
   65    60    62 1
   66    63    64 2
   67    63    69 1
   68    64    65 1
   69    65    67 2
   70    65    66 1
   71    67    69 1
   72    67    68 1
@<TRIPOS>SUBSTRUCTURE
