# Ligand [name]_[conformer]_[binding mode]: ZINC00092235_0001
# SLIDE Version: 3.3.5
# Time stamp: Tue Jul  7 17:30:03 2009
# Affiscore (kcal/mol), for ranking ligand candidates: -7.206
# Ligand Efficiency ((Affinity Score - Constant Term) / # non-H atoms): -0.076
# ===========================================================================
# Weighted term values
# hydrophobic complementarity term (kcal/mol)       : -3.462 
# polar term (kcal/mol)                             : -0.000 
# unsatisfied polar term (kcal/mol)                 : 1.474 
# constant term (kcal/mol)                          : -5.218 
# ===========================================================================
# protein-ligand hydrophobic contacts         : 56
# protein-ligand H-bond count                 : 0
# protein-ligand salt-bridge count            : 0
# metal-ligand interactions count             : 0
# unsatisfied interfacial polar atom count    : 9
# unsatisfied interfacial charged atom count  : 2
# buried carbons (x 100%)          : 0.727
# remaining vdW collisions         : 0
# total vdW overlap (A)            : 0.000
# anchor fragment translations     : 1
# side-chain mean-field iterations : 2
# ligand side-chain rotations      : 0
# protein side-chain rotations     : 3
# Orientscore (kcal/mol), used by SLIDE to select binding mode: -6.318
# ===========================================================================
# Anchor fragment atoms matched to template:
# ligand atom   18  N2   N.pl3 to template point 35 D
# ligand hydrophobic center  0 to template point 90 H
# ligand hydrophobic center 18 to template point 112 H
# ===========================================================================
#          |Ligand Atom -- Protein Atom|
#          |   #  type  -- RES   # type|
# ===========================================================================
@<TRIPOS>MOLECULE
ZINC00092235
   52    56     0     0     0
SMALL
USER_CHARGES
@<TRIPOS>ATOM
      1 C1         18.6535  -18.0077   26.0277 C.ar      1 <0>       -0.0978 
      2 C2         19.9867  -17.6155   25.9389 C.ar      1 <0>       -0.0943 
      3 C3         20.5874  -17.3854   24.6985 C.ar      1 <0>       -0.1009 
      4 C4         19.8018  -17.5628   23.5537 C.ar      1 <0>        0.0626 
      5 C5         18.4628  -17.9553   23.6079 C.ar      1 <0>       -0.0700 
      6 C6         17.8808  -18.1812   24.8737 C.ar      1 <0>       -0.1265 
      7 C7         17.9832  -18.0296   22.2591 C.2       1 <0>       -0.3121 
      8 C8         19.0422  -17.6881   21.4402 C.2       1 <0>        0.0849 
      9 N1         20.1266  -17.4104   22.2266 N.pl3     1 <0>       -0.5192 
     10 C9         16.6130  -18.4045   21.8102 C.3       1 <0>        0.2470 
     11 C10        14.5431  -17.7257   20.5745 C.3       1 <0>        0.0793 
     12 C11        13.7914  -16.5463   19.9744 C.3       1 <0>        0.0735 
     13 C12        14.6738  -15.0638   21.7814 C.3       1 <0>        0.0792 
     14 C13        15.4304  -16.2430   22.3788 C.3       1 <0>        0.0777 
     15 C14        12.5881  -14.4155   20.5072 C.3       1 <0>        0.2493 
     16 C15        11.9492  -13.5652   21.5502 C.2       1 <0>       -0.3108 
     17 C16        10.8801  -13.9235   22.3489 C.2       1 <0>        0.0824 
     18 N2         10.5871  -12.8750   23.1774 N.pl3     1 <0>       -0.5179 
     19 C17        11.4458  -11.8282   22.9396 C.ar      1 <0>        0.0622 
     20 C18        12.3117  -12.2284   21.9199 C.ar      1 <0>       -0.0695 
     21 C19        13.3007  -11.3205   21.4847 C.ar      1 <0>       -0.1261 
     22 C20        13.3856  -10.0570   22.0807 C.ar      1 <0>       -0.0984 
     23 C21        12.5063   -9.6887   23.0957 C.ar      1 <0>       -0.0957 
     24 C22        11.5181  -10.5683   23.5451 C.ar      1 <0>       -0.1004 
     25 H1         21.0369  -17.1345   21.8841 H         1 <0>        0.4881 
     26 H2          9.8458  -12.8678   23.8647 H         1 <0>        0.4882 
     27 H3         18.2073  -18.1819   27.0034 H         1 <0>        0.1593 
     28 H4         20.5702  -17.4868   26.8471 H         1 <0>        0.1682 
     29 H5         21.6265  -17.0807   24.6308 H         1 <0>        0.1640 
     30 H6         16.8426  -18.4877   24.9642 H         1 <0>        0.1247 
     31 H7         19.1188  -17.6204   20.3634 H         1 <0>        0.1783 
     32 H8         16.0336  -18.8791   22.6097 H         1 <0>        0.1105 
     33 H9         16.6940  -19.1202   20.9830 H         1 <0>        0.1015 
     34 H10        14.8693  -18.4088   19.7836 H         1 <0>        0.1444 
     35 H11        13.9328  -18.2723   21.3023 H         1 <0>        0.1211 
     36 H12        14.3915  -16.0170   19.2256 H         1 <0>        0.1217 
     37 H13        12.8550  -16.8857   19.5201 H         1 <0>        0.1444 
     38 H14        15.2834  -14.5129   21.0563 H         1 <0>        0.1176 
     39 H15        14.3534  -14.3884   22.5796 H         1 <0>        0.1624 
     40 H16        14.8342  -16.7715   23.1311 H         1 <0>        0.1184 
     41 H17        16.3631  -15.8925   22.8300 H         1 <0>        0.1625 
     42 H18        13.2320  -13.8329   19.8391 H         1 <0>        0.1098 
     43 H19        11.8031  -14.8795   19.8977 H         1 <0>        0.1013 
     44 H20        10.3000  -14.8350   22.3978 H         1 <0>        0.1787 
     45 H21        13.9959  -11.5888   20.6943 H         1 <0>        0.1259 
     46 H22        14.1462   -9.3561   21.7465 H         1 <0>        0.1589 
     47 H23        12.5882   -8.7023   23.5456 H         1 <0>        0.1676 
     48 H24        10.8331  -10.2795   24.3356 H         1 <0>        0.1649 
     49 N3         15.7829  -17.2374   21.2924 N.4       1 <0>       -0.7137 
     50 H25        16.3704  -16.7519   20.5999 H         1 <0>        0.4431 
     51 N4         13.4355  -15.5536   21.0602 N.4       1 <0>       -0.7135 
     52 H26        12.8450  -16.0442   21.7465 H         1 <0>        0.4430 
@<TRIPOS>BOND
    1     1     6 ar
    2     1     2 ar
    3     1    27 1
    4     2     3 ar
    5     2    28 1
    6     3     4 ar
    7     3    29 1
    8     4     9 1
    9     4     5 ar
   10     5     6 ar
   11     5     7 1
   12     6    30 1
   13     7     8 2
   14     7    10 1
   15     8     9 1
   16     8    31 1
   17     9    25 1
   18    10    32 1
   19    10    33 1
   20    10    49 1
   21    11    12 1
   22    11    34 1
   23    11    35 1
   24    11    49 1
   25    12    36 1
   26    12    37 1
   27    12    51 1
   28    13    14 1
   29    13    38 1
   30    13    39 1
   31    13    51 1
   32    14    40 1
   33    14    41 1
   34    14    49 1
   35    15    16 1
   36    15    42 1
   37    15    43 1
   38    15    51 1
   39    16    20 1
   40    16    17 2
   41    17    18 1
   42    17    44 1
   43    18    19 1
   44    18    26 1
   45    19    24 ar
   46    19    20 ar
   47    20    21 ar
   48    21    22 ar
   49    21    45 1
   50    22    23 ar
   51    22    46 1
   52    23    24 ar
   53    23    47 1
   54    24    48 1
   55    49    50 1
   56    51    52 1
@<TRIPOS>SUBSTRUCTURE
