@<TRIPOS>MOLECULE
1ad8_ligand
   70    73     0     0     0
SMALL
USER_CHARGES

@<TRIPOS>ATOM
      1 C1         15.5960  -16.8830   22.1620 C.3       1 <0>         0.1559
      2 H1         14.6690  -17.4055   22.3981 H         1 <0>        -0.0208
      3 H2         15.3645  -15.9329   21.6805 H         1 <0>         0.1079
      4 H3         16.1957  -17.4947   21.4880 H         1 <0>        -0.0456
      5 N1         16.3430  -16.6370   23.3910 N.3       1 <0>        -0.8067
      6 H4         16.5422  -17.5543   23.8151 H         1 <0>         0.3142
      7 C2         17.6180  -15.9480   23.3060 C.3       1 <0>         0.0270
      8 H5         18.2505  -16.5850   22.6877 H         1 <0>         0.0106
      9 C3         17.3070  -14.5960   22.6590 C.2       1 <0>         0.7147
     10 N2         18.1690  -14.1680   21.7000 N.am      1 <0>        -0.4536
     11 O1         16.3120  -13.9530   23.0150 O.2       1 <0>        -0.6020
     12 C4         19.4480  -14.7750   21.2350 C.3       1 <0>         0.0614
     13 H6         19.2608  -15.6372   20.5949 H         1 <0>         0.0123
     14 H7         20.0513  -15.1087   22.0793 H         1 <0>         0.1412
     15 C5         20.1240  -13.6430   20.4720 C.3       1 <0>        -0.0898
     16 H8         20.6557  -14.1216   19.6496 H         1 <0>         0.0110
     17 H9         20.7896  -13.1634   21.1897 H         1 <0>         0.0411
     18 C6         19.0220  -12.7560   20.0160 C.3       1 <0>        -0.0906
     19 H10        18.7183  -13.0532   19.0122 H         1 <0>         0.0737
     20 H11        19.3760  -11.7251   20.0064 H         1 <0>         0.0208
     21 C7         17.8480  -12.8910   20.9730 C.3       1 <0>         0.0117
     22 H12        17.7809  -12.0495   21.6626 H         1 <0>         0.0657
     23 C8         16.5130  -12.9550   20.2440 C.2       1 <0>         0.6809
     24 N3         15.9090  -11.7440   20.1420 N.am      1 <0>        -0.5432
     25 H13        16.3182  -10.9410   20.6406 H         1 <0>         0.2837
     26 O2         16.0480  -14.0250   19.8720 O.2       1 <0>        -0.6214
     27 C9         14.6960  -11.5390   19.3480 C.3       1 <0>         0.0856
     28 H14        14.3080  -12.5233   19.0860 H         1 <0>         0.0811
     29 C10        13.7140  -10.7660   20.2110 C.3       1 <0>         0.0094
     30 H15        12.9299  -10.3522   19.5769 H         1 <0>         0.0303
     31 H16        14.2426   -9.9592   20.7186 H         1 <0>         0.0032
     32 C11        13.1280  -11.6700   21.1960 C.2       1 <0>        -0.2302
     33 C12        12.8250  -13.0060   20.9830 C.cat     1 <0>         0.0344
     34 H17        13.1576  -13.6227   20.1480 H         1 <0>         0.1333
     35 C13        12.5370  -11.2600   22.4240 C.ar      1 <0>        -0.1870
     36 C14        11.8250  -12.3430   22.9070 C.ar      1 <0>         0.3891
     37 N4         12.0370  -13.3970   22.0110 N.2       1 <0>        -0.7030
     38 C15        11.0930  -12.2070   24.1150 C.ar      1 <0>        -0.2186
     39 H18        10.5118  -13.0506   24.4873 H         1 <0>         0.0759
     40 C16        11.1050  -10.9900   24.8470 C.ar      1 <0>        -0.2086
     41 H19        10.5282  -10.9062   25.7681 H         1 <0>         0.0515
     42 C17        11.8560   -9.8930   24.3910 C.ar      1 <0>        -0.2305
     43 H20        11.8943   -8.9595   24.9524 H         1 <0>         0.0577
     44 C18        12.5590  -10.0490   23.1760 C.ar      1 <0>        -0.1022
     45 H21        13.1421   -9.2093   22.7979 H         1 <0>         0.0859
     46 C19        15.0200  -10.7460   18.0930 C.3       1 <0>         0.0971
     47 H22        15.5950   -9.8513   18.3319 H         1 <0>        -0.0034
     48 O3         13.7440  -10.4290   17.5750 O.3       1 <0>        -0.6472
     49 H23        13.6513   -9.4066   17.4909 H         1 <0>         0.4015
     50 C20        15.8540  -11.6470   17.1140 C.3       1 <0>        -0.1406
     51 F1         15.2550  -12.8370   16.9560 F         1 <0>        -0.3186
     52 F2         17.0300  -11.8840   17.6730 F         1 <0>        -0.3365
     53 C21        16.1990  -11.0390   15.7820 C.3       1 <0>         0.1248
     54 F3         16.7990  -11.9900   15.1240 F         1 <0>        -0.3636
     55 F4         17.0100  -10.0060   15.9180 F         1 <0>        -0.3730
     56 F5         15.0980  -10.7040   15.1980 F         1 <0>        -0.3882
     57 C22        18.1070  -15.7870   24.7560 C.3       1 <0>         0.1511
     58 H24        17.9728  -16.7403   25.2672 H         1 <0>        -0.0850
     59 H25        17.5115  -15.0068   25.2302 H         1 <0>        -0.0229
     60 C23        19.5800  -15.3920   24.9010 C.2       1 <0>        -0.5449
     61 C24        20.6280  -16.1360   24.2760 C.2       1 <0>        -0.2145
     62 H26        20.3933  -17.0422   23.7176 H         1 <0>         0.0042
     63 C25        21.9750  -15.6970   24.3810 C.2       1 <0>        -0.0855
     64 H27        22.7719  -16.2621   23.8976 H         1 <0>        -0.0210
     65 C26        22.2790  -14.5360   25.1070 C.2       1 <0>        -0.6209
     66 H28        23.3063  -14.1739   25.1469 H         1 <0>         0.0139
     67 C27        21.2580  -13.8340   25.7870 C.2       1 <0>        -0.1466
     68 H29        21.5059  -12.9644   26.3957 H         1 <0>        -0.0053
     69 C28        19.9180  -14.2600   25.6770 C.2       1 <0>        -0.1273
     70 H30        19.1336  -13.7097   26.1966 H         1 <0>         0.0353
@<TRIPOS>BOND
     1    1    5 1
     2    1    2 1
     3    1    3 1
     4    1    4 1
     5    5    7 1
     6    5    6 1
     7    7    9 1
     8    7   57 1
     9    7    8 1
    10    9   10 am
    11    9   11 2
    12   10   12 1
    13   10   21 1
    14   12   15 1
    15   12   13 1
    16   12   14 1
    17   15   18 1
    18   15   16 1
    19   15   17 1
    20   18   21 1
    21   18   19 1
    22   18   20 1
    23   21   23 1
    24   21   22 1
    25   23   24 am
    26   23   26 2
    27   24   27 1
    28   24   25 1
    29   27   29 1
    30   27   46 1
    31   27   28 1
    32   29   32 1
    33   29   30 1
    34   29   31 1
    35   32   33 1
    36   32   35 2
    37   33   37 1
    38   33   34 1
    39   35   36 ar
    40   35   44 ar
    41   36   37 2
    42   36   38 ar
    43   38   40 ar
    44   38   39 1
    45   40   42 ar
    46   40   41 1
    47   42   44 ar
    48   42   43 1
    49   44   45 1
    50   46   48 1
    51   46   50 1
    52   46   47 1
    53   48   49 1
    54   50   51 1
    55   50   52 1
    56   50   53 1
    57   53   54 1
    58   53   55 1
    59   53   56 1
    60   57   60 1
    61   57   58 1
    62   57   59 1
    63   60   61 1
    64   60   69 1
    65   61   63 1
    66   61   62 1
    67   63   65 1
    68   63   64 1
    69   65   67 1
    70   65   66 1
    71   67   69 1
    72   67   68 1
    73   69   70 1
