@<TRIPOS>MOLECULE
1tbz_ligand
   72    75     0     0     0
SMALL
USER_CHARGES

@<TRIPOS>ATOM
      1 N1         16.3480  -16.6380   23.1790 N.3       1 <0>        -0.9015
      2 H1         15.6005  -15.9295   23.1683 H         1 <0>         0.3614
      3 H2         16.2781  -17.2229   22.3341 H         1 <0>         0.3622
      4 C1         17.6880  -15.9540   23.2070 C.3       1 <0>         0.1282
      5 H3         18.3588  -16.5960   22.6361 H         1 <0>         0.0688
      6 C2         17.4700  -14.5930   22.5560 C.2       1 <0>         0.6479
      7 O1         16.4460  -13.9990   22.9220 O.2       1 <0>        -0.6584
      8 C3         18.1320  -15.8510   24.6720 C.3       1 <0>        -0.0312
      9 H4         18.0853  -16.8114   25.1853 H         1 <0>         0.0777
     10 H5         17.5102  -15.1620   25.2436 H         1 <0>         0.0633
     11 C4         19.5480  -15.3620   24.8040 C.ar      1 <0>        -0.0930
     12 C5         20.5770  -16.1010   24.1970 C.ar      1 <0>        -0.1377
     13 H6         20.3401  -17.0102   23.6445 H         1 <0>         0.1303
     14 C6         19.8440  -14.2290   25.5670 C.ar      1 <0>        -0.1219
     15 H7         19.0435  -13.6567   26.0358 H         1 <0>         0.1324
     16 C7         21.9210  -15.6680   24.3010 C.ar      1 <0>        -0.1278
     17 H8         22.7082  -16.2031   23.7699 H         1 <0>         0.1366
     18 C8         21.2100  -13.8270   25.7270 C.ar      1 <0>        -0.1260
     19 H9         21.4503  -12.9612   26.3440 H         1 <0>         0.1357
     20 C9         22.2430  -14.5410   25.0940 C.ar      1 <0>        -0.1248
     21 H10        23.2808  -14.2296   25.2129 H         1 <0>         0.1386
     22 N2         18.3140  -14.1860   21.6410 N.am      1 <0>        -0.4527
     23 C10        18.0830  -12.9000   20.9010 C.3       1 <0>         0.0528
     24 H11        18.1572  -12.0589   21.5903 H         1 <0>         0.0771
     25 C11        16.6950  -12.9090   20.2710 C.2       1 <0>         0.6590
     26 O2         16.1550  -13.9850   19.9200 O.2       1 <0>        -0.6051
     27 C12        19.2500  -12.7780   19.9480 C.3       1 <0>        -0.0835
     28 H12        19.7709  -11.8422   20.1508 H         1 <0>         0.0660
     29 H13        18.8696  -12.7836   18.9265 H         1 <0>         0.0728
     30 C13        20.1800  -13.9520   20.1660 C.3       1 <0>        -0.0875
     31 H14        21.1317  -13.5573   20.5218 H         1 <0>         0.0624
     32 H15        20.2965  -14.4625   19.2100 H         1 <0>         0.0662
     33 C14        19.5420  -14.8560   21.1960 C.3       1 <0>         0.0903
     34 H16        19.2394  -15.8131   20.7712 H         1 <0>         0.0468
     35 H17        20.1688  -14.9786   22.0793 H         1 <0>         0.0690
     36 N3         16.0060  -11.7600   20.2740 N.am      1 <0>        -0.5631
     37 H18        16.4854  -10.9449   20.6823 H         1 <0>         0.3249
     38 C15        14.6630  -11.5260   19.7700 C.3       1 <0>         0.0192
     39 H19        14.1481  -12.4349   19.4588 H         1 <0>         0.1101
     40 C16        14.6170  -10.5980   18.5350 C.2       1 <0>         0.5046
     41 O3         13.5570  -10.5200   17.8760 O.2       1 <0>        -0.4860
     42 C17        13.6870  -10.9100   20.7840 C.3       1 <0>        -0.0925
     43 H20        12.7656  -10.5474   20.3283 H         1 <0>         0.0786
     44 H21        14.1035  -10.0553   21.3171 H         1 <0>         0.0616
     45 C18        13.2530  -11.8760   21.8520 C.3       1 <0>        -0.1048
     46 H22        14.0973  -12.1676   22.4767 H         1 <0>         0.0954
     47 H23        12.8314  -12.7786   21.4096 H         1 <0>         0.0616
     48 C19        12.2280  -11.2700   22.7210 C.3       1 <0>         0.2019
     49 H24        11.4380  -10.7959   22.1386 H         1 <0>         0.0683
     50 H25        12.6543  -10.5058   23.3709 H         1 <0>         0.0676
     51 N4         11.6100  -12.2430   23.5600 N.pl3     1 <0>        -0.7573
     52 H26        11.8570  -13.2227   23.3596 H         1 <0>         0.4811
     53 C20        10.7720  -12.0640   24.5500 C.cat     1 <0>         0.6367
     54 N5         10.4980  -10.7690   24.8520 N.pl3     1 <0>        -0.8568
     55 H27         9.8477  -10.5455   25.6188 H         1 <0>         0.4812
     56 H28        10.9406  -10.0101   24.3144 H         1 <0>         0.4833
     57 N6         10.0470  -13.0890   24.9950 N.pl3     1 <0>        -0.8656
     58 H29         9.3865  -12.9530   25.7735 H         1 <0>         0.4806
     59 H30        10.1468  -14.0175   24.5605 H         1 <0>         0.4811
     60 C21        15.9390  -11.0690   17.2900 C.2       1 <0>         0.2696
     61 N7         17.1460  -10.7760   16.9920 N.2       1 <0>        -0.4916
     62 C22        17.5680  -11.5150   15.9120 C.ar      1 <0>         0.0703
     63 S1         15.2360  -12.4930   16.4210 S.3       1 <0>         0.0301
     64 C23        16.5560  -12.2610   15.2680 C.ar      1 <0>        -0.0840
     65 C24        16.8750  -13.1040   14.1810 C.ar      1 <0>        -0.0911
     66 H31        16.1330  -13.7917   13.7754 H         1 <0>         0.1465
     67 C25        18.1600  -13.0400   13.6350 C.ar      1 <0>        -0.1054
     68 H32        18.5055  -13.7943   12.9281 H         1 <0>         0.1454
     69 C26        19.0160  -11.9510   14.0310 C.ar      1 <0>        -0.1262
     70 H33        19.8988  -11.7125   13.4377 H         1 <0>         0.1459
     71 C27        18.7250  -11.2080   15.1570 C.ar      1 <0>        -0.0700
     72 H34        19.3803  -10.3921   15.4621 H         1 <0>         0.1542
@<TRIPOS>BOND
     1    1    4 1
     2    1    2 1
     3    1    3 1
     4    4    6 1
     5    4    8 1
     6    4    5 1
     7    6    7 2
     8    6   22 am
     9    8   11 1
    10    8    9 1
    11    8   10 1
    12   11   12 ar
    13   11   14 ar
    14   12   16 ar
    15   12   13 1
    16   14   18 ar
    17   14   15 1
    18   16   20 ar
    19   16   17 1
    20   18   20 ar
    21   18   19 1
    22   20   21 1
    23   22   23 1
    24   22   33 1
    25   23   25 1
    26   23   27 1
    27   23   24 1
    28   25   26 2
    29   25   36 am
    30   27   30 1
    31   27   28 1
    32   27   29 1
    33   30   33 1
    34   30   31 1
    35   30   32 1
    36   33   34 1
    37   33   35 1
    38   36   38 1
    39   36   37 1
    40   38   40 1
    41   38   42 1
    42   38   39 1
    43   40   41 2
    44   40   60 1
    45   42   45 1
    46   42   43 1
    47   42   44 1
    48   45   48 1
    49   45   46 1
    50   45   47 1
    51   48   51 1
    52   48   49 1
    53   48   50 1
    54   51   53 1
    55   51   52 1
    56   53   54 1
    57   53   57 1
    58   54   55 1
    59   54   56 1
    60   57   58 1
    61   57   59 1
    62   60   61 2
    63   60   63 1
    64   61   62 1
    65   62   64 ar
    66   62   71 ar
    67   63   64 1
    68   64   65 ar
    69   65   67 ar
    70   65   66 1
    71   67   69 ar
    72   67   68 1
    73   69   71 ar
    74   69   70 1
    75   71   72 1
