@<TRIPOS>MOLECULE
ZINC00171204
   35    37     0     0     0
SMALL
USER_CHARGES

@<TRIPOS>ATOM
      1 C1         -0.1722    4.0984    7.1400 C.ar      1 <0>        -0.1284
      2 C2          0.0274    3.6912    5.8253 C.ar      1 <0>        -0.1217
      3 C3         -0.5192    4.4274    4.7687 C.ar      1 <0>        -0.1187
      4 C4         -1.2706    5.5876    5.0065 C.ar      1 <0>         0.0468
      5 C5         -1.4737    5.9725    6.3425 C.ar      1 <0>        -0.1256
      6 C6         -0.9252    5.2383    7.3987 C.ar      1 <0>        -0.1222
      7 N1         -1.8441    6.3442    3.9396 N.am      1 <0>        -0.3891
      8 C7         -3.0832    6.9778    4.0509 C.2       1 <0>         0.6925
      9 O1         -3.8532    7.0023    5.0019 O.2       1 <0>        -0.5506
     10 C8         -3.3831    7.6386    2.7121 C.3       1 <0>         0.0229
     11 N2         -2.2224    7.3330    1.9498 N.pl3     1 <0>        -0.5503
     12 C9         -1.3006    6.5809    2.6760 C.2       1 <0>         0.5548
     13 S1          0.1858    6.2119    2.0157 S.2       1 <0>        -0.4561
     14 C10        -4.6423    7.0546    2.0525 C.3       1 <0>        -0.0301
     15 C11        -5.9320    7.5793    2.6363 C.ar      1 <0>        -0.1329
     16 C12        -6.3577    8.8862    2.3561 C.ar      1 <0>        -0.0908
     17 C13        -7.5476    9.3752    2.8966 C.ar      1 <0>        -0.1555
     18 C14        -8.3163    8.5575    3.7191 C.ar      1 <0>         0.1332
     19 C15        -7.9121    7.2567    4.0081 C.ar      1 <0>        -0.2092
     20 C16        -6.7216    6.7697    3.4655 C.ar      1 <0>        -0.0628
     21 O2         -9.4754    9.0661    4.2332 O.3       1 <0>        -0.4955
     22 H1         -2.0412    7.6772    1.0121 H         1 <0>         0.3613
     23 H2         -9.8950    8.3837    4.7843 H         1 <0>         0.4215
     24 H3          0.2522    3.5263    7.9596 H         1 <0>         0.1358
     25 H4          0.5994    2.7911    5.6174 H         1 <0>         0.1374
     26 H5         -0.3838    4.0335    3.7663 H         1 <0>         0.1602
     27 H6         -2.0292    6.8728    6.5920 H         1 <0>         0.1522
     28 H7         -1.0847    5.5630    8.4232 H         1 <0>         0.1364
     29 H8         -3.5002    8.7216    2.8549 H         1 <0>         0.0981
     30 H9         -4.6418    7.2875    0.9787 H         1 <0>         0.0615
     31 H10        -4.6280    5.9579    2.1125 H         1 <0>         0.0645
     32 H11        -5.7637    9.5310    1.7130 H         1 <0>         0.1303
     33 H12        -7.8671   10.3890    2.6731 H         1 <0>         0.1528
     34 H13        -8.5083    6.6153    4.6503 H         1 <0>         0.1382
     35 H14        -6.4109    5.7542    3.6994 H         1 <0>         0.1390
@<TRIPOS>BOND
     1    1    6 ar
     2    1    2 ar
     3    1   24 1
     4    2    3 ar
     5    2   25 1
     6    3    4 ar
     7    3   26 1
     8    4    5 ar
     9    4    7 1
    10    5    6 ar
    11    5   27 1
    12    6   28 1
    13    7   12 1
    14    7    8 am
    15    8    9 2
    16    8   10 1
    17   10   11 1
    18   10   14 1
    19   10   29 1
    20   11   12 1
    21   11   22 1
    22   12   13 2
    23   14   15 1
    24   14   30 1
    25   14   31 1
    26   15   20 ar
    27   15   16 ar
    28   16   17 ar
    29   16   32 1
    30   17   18 ar
    31   17   33 1
    32   18   19 ar
    33   18   21 1
    34   19   20 ar
    35   19   34 1
    36   20   35 1
    37   21   23 1
