@<TRIPOS>MOLECULE
ZINC00538219
   61    64     0     0     0
SMALL
USER_CHARGES

@<TRIPOS>ATOM
      1 C1          5.6903   -7.3618    3.7345 C.3       1 <0>        -0.1486
      2 C2          5.3869   -7.0106    2.3096 C.2       1 <0>         0.6441
      3 O1          5.2483   -7.8340    1.4157 O.2       1 <0>        -0.5360
      4 O2          5.2907   -5.6563    2.1853 O.3       1 <0>        -0.4351
      5 C3          4.9951   -5.1447    0.8793 C.3       1 <0>         0.0407
      6 C4          3.4911   -5.0510    0.6717 C.2       1 <0>         0.5542
      7 O3          2.7137   -5.5859    1.4709 O.2       1 <0>        -0.5199
      8 C5          2.9076   -4.2810   -0.5248 C.3       1 <0>        -0.1600
      9 C6          3.9253   -4.0654   -1.6876 C.3       1 <0>        -0.0783
     10 C7          4.3235   -2.5711   -1.6944 C.3       1 <0>        -0.0760
     11 C8          3.7703   -2.0329   -0.3783 C.3       1 <0>        -0.0658
     12 C9          2.4960   -2.8423   -0.1579 C.3       1 <0>        -0.0348
     13 C10         2.0591   -2.6089    1.3017 C.3       1 <0>        -0.0700
     14 C11         1.8231   -1.1141    1.5915 C.3       1 <0>        -0.0738
     15 C12         3.0227   -0.2084    1.1742 C.3       1 <0>        -0.0483
     16 C13         3.5335   -0.5200   -0.2532 C.3       1 <0>        -0.0464
     17 C14         4.8384    0.2566   -0.5154 C.3       1 <0>        -0.0458
     18 C15         4.7772    1.6793   -0.0636 C.2       1 <0>        -0.1643
     19 C16         3.8178    2.1848    0.7311 C.2       1 <0>        -0.1152
     20 C17         2.6778    1.3350    1.3073 C.3       1 <0>        -0.0019
     21 C18         2.5176    1.6510    2.8246 C.3       1 <0>        -0.0725
     22 C19         2.4675    3.1447    3.1569 C.3       1 <0>        -0.1101
     23 C20         3.6604    3.9154    2.5861 C.3       1 <0>         0.1457
     24 C21         3.8380    3.6581    1.0900 C.3       1 <0>        -0.0786
     25 O4          4.8455    3.5351    3.2734 O.3       1 <0>        -0.5968
     26 C22         1.3696    1.7101    0.5682 C.3       1 <0>        -0.0828
     27 C23         1.3214   -2.4325   -1.0910 C.3       1 <0>        -0.0861
     28 H1          5.0614    2.6172    3.0384 H         1 <0>         0.4014
     29 H2          5.7747   -8.4481    3.8301 H         1 <0>         0.0768
     30 H3          6.6403   -6.9118    4.0334 H         1 <0>         0.0745
     31 H4          4.8798   -7.0171    4.3817 H         1 <0>         0.0833
     32 H5          5.4438   -4.1526    0.8268 H         1 <0>         0.0894
     33 H6          5.4448   -5.7783    0.1094 H         1 <0>         0.0882
     34 H7          2.0926   -4.9019   -0.9354 H         1 <0>         0.0847
     35 H8          4.8076   -4.7061   -1.6361 H         1 <0>         0.0457
     36 H9          3.4408   -4.2976   -2.6445 H         1 <0>         0.0499
     37 H10         5.4095   -2.4508   -1.7640 H         1 <0>         0.0442
     38 H11         3.8765   -2.0629   -2.5562 H         1 <0>         0.0492
     39 H12         4.5471   -2.2581    0.3729 H         1 <0>         0.0436
     40 H13         1.1466   -3.1734    1.5284 H         1 <0>         0.0579
     41 H14         2.8297   -2.9554    2.0012 H         1 <0>         0.0463
     42 H15         0.9009   -0.8100    1.0910 H         1 <0>         0.0448
     43 H16         1.6352   -1.0053    2.6659 H         1 <0>         0.0428
     44 H17         3.8229   -0.4844    1.8897 H         1 <0>         0.0471
     45 H18         2.8270   -0.1823   -1.0257 H         1 <0>         0.0599
     46 H19         5.6845   -0.2232   -0.0079 H         1 <0>         0.0494
     47 H20         5.0593    0.2359   -1.5894 H         1 <0>         0.0491
     48 H21         5.5722    2.3257   -0.4280 H         1 <0>         0.1232
     49 H22         1.6031    1.1886    3.2156 H         1 <0>         0.0469
     50 H23         3.3477    1.2015    3.3856 H         1 <0>         0.0411
     51 H24         1.5354    3.5747    2.7720 H         1 <0>         0.0479
     52 H25         2.4465    3.2559    4.2478 H         1 <0>         0.0569
     53 H26         3.4679    4.9865    2.7531 H         1 <0>         0.0719
     54 H27         4.7777    4.1200    0.7612 H         1 <0>         0.0584
     55 H28         3.0330    4.1598    0.5398 H         1 <0>         0.0575
     56 H29         1.1974    2.7917    0.5564 H         1 <0>         0.0367
     57 H30         1.3810    1.3842   -0.4764 H         1 <0>         0.0386
     58 H31         0.4891    1.2724    1.0490 H         1 <0>         0.0366
     59 H32         1.0172   -1.3888   -0.9861 H         1 <0>         0.0425
     60 H33         1.5674   -2.5836   -2.1475 H         1 <0>         0.0358
     61 H34         0.4386   -3.0472   -0.8777 H         1 <0>         0.0404
@<TRIPOS>BOND
     1    1    2 1
     2    1   29 1
     3    1   30 1
     4    1   31 1
     5    2    3 2
     6    2    4 1
     7    4    5 1
     8    5    6 1
     9    5   32 1
    10    5   33 1
    11    6    7 2
    12    6    8 1
    13    8   12 1
    14    8    9 1
    15    8   34 1
    16    9   10 1
    17    9   35 1
    18    9   36 1
    19   10   11 1
    20   10   37 1
    21   10   38 1
    22   11   16 1
    23   11   12 1
    24   11   39 1
    25   12   13 1
    26   12   27 1
    27   13   14 1
    28   13   40 1
    29   13   41 1
    30   14   15 1
    31   14   42 1
    32   14   43 1
    33   15   20 1
    34   15   16 1
    35   15   44 1
    36   16   17 1
    37   16   45 1
    38   17   18 1
    39   17   46 1
    40   17   47 1
    41   18   19 2
    42   18   48 1
    43   19   24 1
    44   19   20 1
    45   20   21 1
    46   20   26 1
    47   21   22 1
    48   21   49 1
    49   21   50 1
    50   22   23 1
    51   22   51 1
    52   22   52 1
    53   23   24 1
    54   23   25 1
    55   23   53 1
    56   24   54 1
    57   24   55 1
    58   25   28 1
    59   26   56 1
    60   26   57 1
    61   26   58 1
    62   27   59 1
    63   27   60 1
    64   27   61 1
