@<TRIPOS>MOLECULE
ZINC00000024
   39    43     0     0     0
SMALL
USER_CHARGES

@<TRIPOS>ATOM
      1 C1          4.2984    4.1460   -1.1036 C.ar      1 <0>        -0.1016
      2 C2          4.0141    4.7019    0.1559 C.ar      1 <0>        -0.1540
      3 C3          2.6663    4.9542    0.5520 C.ar      1 <0>        -0.0799
      4 C4          1.6239    4.6075   -0.3289 C.ar      1 <0>        -0.0859
      5 C5          1.9434    4.0732   -1.5609 C.ar      1 <0>         0.0932
      6 C6          3.2435    3.8525   -1.9390 C.ar      1 <0>         0.0821
      7 O1          3.3378    3.3117   -3.1837 O.3       1 <0>        -0.3168
      8 C7          1.9455    3.2209   -3.5490 C.3       1 <0>         0.3199
      9 O2          1.0541    3.6956   -2.5195 O.3       1 <0>        -0.3124
     10 C8          2.3289    5.5214    1.9469 C.3       1 <0>        -0.0267
     11 C9          1.6784    6.9331    1.8766 C.3       1 <0>         0.1623
     12 C10         1.3577    7.4657    3.3004 C.3       1 <0>         0.1135
     13 C11         2.5465    7.3989    4.2190 C.2       1 <0>        -0.0877
     14 C12         3.5480    6.5490    3.9770 C.2       1 <0>        -0.1915
     15 C13         3.5763    5.5734    2.8521 C.3       1 <0>         0.1747
     16 C14         5.1583    4.9571    1.1017 C.3       1 <0>         0.1834
     17 C15         5.8090    6.2590    3.2247 C.3       1 <0>         0.1199
     18 C16         4.9663    6.6685    4.4598 C.3       1 <0>        -0.0527
     19 O3          0.9571    8.8200    3.1671 O.3       1 <0>        -0.5895
     20 O4          0.4459    6.8599    1.1739 O.3       1 <0>        -0.5890
     21 H1          0.6464    9.1240    4.0373 H         1 <0>         0.4286
     22 H2          0.0603    7.7539    1.1784 H         1 <0>         0.4435
     23 H3          5.3188    3.9417   -1.4122 H         1 <0>         0.1670
     24 H4          0.5822    4.7351   -0.0541 H         1 <0>         0.1953
     25 H5          1.7810    3.8130   -4.4567 H         1 <0>         0.0959
     26 H6          1.7068    2.1730   -3.7641 H         1 <0>         0.0947
     27 H7          1.6095    4.7910    2.3626 H         1 <0>         0.1168
     28 H8          2.3711    7.6139    1.3537 H         1 <0>         0.0531
     29 H9          0.5492    6.8678    3.7502 H         1 <0>         0.0849
     30 H10         2.6442    8.1483    4.9992 H         1 <0>         0.1679
     31 H11         3.6726    4.5623    3.2887 H         1 <0>         0.1159
     32 H12         5.4384    4.0310    1.6168 H         1 <0>         0.1055
     33 H13         6.0261    5.3624    0.5702 H         1 <0>         0.1056
     34 H14         6.3799    5.3442    3.4149 H         1 <0>         0.1054
     35 H15         6.4633    7.0580    2.8646 H         1 <0>         0.1054
     36 H16         5.2158    7.6853    4.7791 H         1 <0>         0.0976
     37 H17         5.1559    5.9826    5.2918 H         1 <0>         0.0980
     38 N1          4.7862    5.9669    2.1294 N.4       1 <0>        -0.6957
     39 H18         4.6719    6.8594    1.6190 H         1 <0>         0.4533
@<TRIPOS>BOND
     1    1    6 ar
     2    1    2 ar
     3    1   23 1
     4    2   16 1
     5    2    3 ar
     6    3    4 ar
     7    3   10 1
     8    4    5 ar
     9    4   24 1
    10    5    9 1
    11    5    6 ar
    12    6    7 1
    13    7    8 1
    14    8    9 1
    15    8   25 1
    16    8   26 1
    17   10   15 1
    18   10   11 1
    19   10   27 1
    20   11   12 1
    21   11   20 1
    22   11   28 1
    23   12   13 1
    24   12   19 1
    25   12   29 1
    26   13   14 2
    27   13   30 1
    28   14   18 1
    29   14   15 1
    30   15   31 1
    31   15   38 1
    32   16   32 1
    33   16   33 1
    34   16   38 1
    35   17   18 1
    36   17   34 1
    37   17   35 1
    38   17   38 1
    39   18   36 1
    40   18   37 1
    41   19   21 1
    42   20   22 1
    43   38   39 1
