@<TRIPOS>MOLECULE
ZINC00092235
   52    56     0     0     0
SMALL
USER_CHARGES

@<TRIPOS>ATOM
      1 C1         -0.0870   -3.1448   -3.6564 C.ar      1 <0>        -0.0978
      2 C2         -1.0317   -2.1762   -3.9857 C.ar      1 <0>        -0.0943
      3 C3         -0.8360   -0.8356   -3.6441 C.ar      1 <0>        -0.1009
      4 C4          0.3404   -0.5044   -2.9618 C.ar      1 <0>         0.0626
      5 C5          1.3073   -1.4509   -2.6166 C.ar      1 <0>        -0.0700
      6 C6          1.0845   -2.7981   -2.9736 C.ar      1 <0>        -0.1265
      7 C7          2.3632   -0.7573   -1.9393 C.2       1 <0>        -0.3121
      8 C8          1.9993    0.5747   -1.8925 C.2       1 <0>         0.0849
      9 N1          0.7856    0.7146   -2.5081 N.pl3     1 <0>        -0.5192
     10 C9          3.6148   -1.3444   -1.3841 C.3       1 <0>         0.2470
     11 C10         6.1190   -1.3713   -1.4086 C.3       1 <0>         0.0793
     12 C11         7.3533   -0.9331   -2.1837 C.3       1 <0>         0.0735
     13 C12         6.1099   -1.2266   -4.3307 C.3       1 <0>         0.0792
     14 C13         4.8730   -1.6599   -3.5547 C.3       1 <0>         0.0777
     15 C14         8.6384   -1.2451   -4.3105 C.3       1 <0>         0.2493
     16 C15         8.8615   -2.0726   -5.5290 C.2       1 <0>        -0.3108
     17 C16         9.2394   -3.4014   -5.5516 C.2       1 <0>         0.0824
     18 N2          9.3399   -3.8016   -6.8560 N.pl3     1 <0>        -0.5179
     19 C17         9.0342   -2.7582   -7.6972 C.ar      1 <0>         0.0622
     20 C18         8.7329   -1.6560   -6.8946 C.ar      1 <0>        -0.0695
     21 C19         8.3831   -0.4427   -7.5250 C.ar      1 <0>        -0.1261
     22 C20         8.3483   -0.3781   -8.9227 C.ar      1 <0>        -0.0984
     23 C21         8.6545   -1.4960   -9.6944 C.ar      1 <0>        -0.0957
     24 C22         9.0040   -2.7091   -9.0957 C.ar      1 <0>        -0.1004
     25 H1          0.2853    1.5867   -2.6139 H         1 <0>         0.4881
     26 H2          9.6025   -4.7293   -7.1600 H         1 <0>         0.4882
     27 H3         -0.2607   -4.1819   -3.9315 H         1 <0>         0.1593
     28 H4         -1.9356   -2.4660   -4.5157 H         1 <0>         0.1682
     29 H5         -1.5734   -0.0821   -3.9006 H         1 <0>         0.1640
     30 H6          1.8091   -3.5685   -2.7257 H         1 <0>         0.1247
     31 H7          2.4991    1.4367   -1.4717 H         1 <0>         0.1783
     32 H8          3.5596   -2.4360   -1.3099 H         1 <0>         0.1105
     33 H9          3.7762   -0.9463   -0.3749 H         1 <0>         0.1015
     34 H10         6.0695   -0.8481   -0.4482 H         1 <0>         0.1444
     35 H11         6.1062   -2.4536   -1.2375 H         1 <0>         0.1211
     36 H12         7.3805    0.1527   -2.3298 H         1 <0>         0.1217
     37 H13         8.2611   -1.2555   -1.6638 H         1 <0>         0.1444
     38 H14         6.1230   -0.1451   -4.5068 H         1 <0>         0.1176
     39 H15         6.1489   -1.7546   -5.2876 H         1 <0>         0.1624
     40 H16         4.8411   -2.7458   -3.4109 H         1 <0>         0.1184
     41 H17         3.9728   -1.3333   -4.0830 H         1 <0>         0.1625
     42 H18         8.6030   -0.1746   -4.5410 H         1 <0>         0.1098
     43 H19         9.4673   -1.4116   -3.6118 H         1 <0>         0.1013
     44 H20         9.4481   -4.0976   -4.7506 H         1 <0>         0.1787
     45 H21         8.1410    0.4405   -6.9408 H         1 <0>         0.1259
     46 H22         8.0797    0.5556   -9.4101 H         1 <0>         0.1589
     47 H23         8.6223   -1.4252  -10.7789 H         1 <0>         0.1676
     48 H24         9.2432   -3.5791   -9.6984 H         1 <0>         0.1649
     49 N3          4.8685   -1.0161   -2.1840 N.4       1 <0>        -0.7137
     50 H25         4.8659    0.0052   -2.3159 H         1 <0>         0.4431
     51 N4          7.3604   -1.5790   -3.5526 N.4       1 <0>        -0.7135
     52 H26         7.3673   -2.5993   -3.4132 H         1 <0>         0.4430
@<TRIPOS>BOND
     1    1    6 ar
     2    1    2 ar
     3    1   27 1
     4    2    3 ar
     5    2   28 1
     6    3    4 ar
     7    3   29 1
     8    4    9 1
     9    4    5 ar
    10    5    6 ar
    11    5    7 1
    12    6   30 1
    13    7    8 2
    14    7   10 1
    15    8    9 1
    16    8   31 1
    17    9   25 1
    18   10   32 1
    19   10   33 1
    20   10   49 1
    21   11   12 1
    22   11   34 1
    23   11   35 1
    24   11   49 1
    25   12   36 1
    26   12   37 1
    27   12   51 1
    28   13   14 1
    29   13   38 1
    30   13   39 1
    31   13   51 1
    32   14   40 1
    33   14   41 1
    34   14   49 1
    35   15   16 1
    36   15   42 1
    37   15   43 1
    38   15   51 1
    39   16   20 1
    40   16   17 2
    41   17   18 1
    42   17   44 1
    43   18   19 1
    44   18   26 1
    45   19   24 ar
    46   19   20 ar
    47   20   21 ar
    48   21   22 ar
    49   21   45 1
    50   22   23 ar
    51   22   46 1
    52   23   24 ar
    53   23   47 1
    54   24   48 1
    55   49   50 1
    56   51   52 1
