@<TRIPOS>MOLECULE
ZINC00000036
   18    18     0     0     0
SMALL
USER_CHARGES

@<TRIPOS>ATOM
      1 C1          2.7129    0.2759    4.7883 C.ar      1 <0>        -0.1622
      2 C2          3.7857   -0.3187    4.1271 C.ar      1 <0>        -0.1437
      3 C3          4.2411   -1.5781    4.5225 C.ar      1 <0>        -0.1250
      4 C4          3.6259   -2.2595    5.5830 C.ar      1 <0>        -0.0258
      5 C5          2.5493   -1.6462    6.2432 C.ar      1 <0>        -0.1125
      6 C6          2.0953   -0.3871    5.8465 C.ar      1 <0>        -0.1427
      7 C7          4.1332   -3.6189    6.0111 C.3       1 <0>         0.0409
      8 C8          4.8214   -3.5213    7.3818 C.2       1 <0>         0.9009
      9 O1          4.2776   -4.1741    8.3189 O.co2     1 <0>        -0.8417
     10 O2          3.0275   -4.5152    6.0907 O.3       1 <0>        -0.6391
     11 H1          3.2365   -5.1693    6.7815 H         1 <0>         0.4257
     12 H2          2.3602    1.2559    4.4806 H         1 <0>         0.1039
     13 H3          4.2705    0.1986    3.3042 H         1 <0>         0.1064
     14 H4          5.0829   -2.0233    3.9979 H         1 <0>         0.1266
     15 H5          2.0582   -2.1487    7.0733 H         1 <0>         0.1411
     16 H6          1.2608    0.0758    6.3652 H         1 <0>         0.1085
     17 H7          4.8532   -3.9893    5.2644 H         1 <0>         0.0444
     18 O3          5.8763   -2.8229    7.4044 O.co2     1 <0>        -0.8057
@<TRIPOS>BOND
     1    1    6 ar
     2    1    2 ar
     3    1   12 1
     4    2    3 ar
     5    2   13 1
     6    3    4 ar
     7    3   14 1
     8    4    5 ar
     9    4    7 1
    10    5    6 ar
    11    5   15 1
    12    6   16 1
    13    7    8 1
    14    7   10 1
    15    7   17 1
    16    8    9 2
    17    8   18 1
    18   10   11 1
@<TRIPOS>MOLECULE
ZINC00000048
   30    31     0     0     0
SMALL
USER_CHARGES

@<TRIPOS>ATOM
      1 C1          6.5531   -7.1192    0.1755 C.3       1 <0>         0.1138
      2 O1          5.1576   -7.3482    0.0218 O.3       1 <0>        -0.3068
      3 C2          4.3577   -6.2455   -0.0584 C.ar      1 <0>         0.1141
      4 C3          4.7746   -4.9147   -0.0067 C.ar      1 <0>        -0.1642
      5 C4          3.8446   -3.8481   -0.1047 C.ar      1 <0>        -0.0642
      6 C5          2.4633   -4.1165   -0.2406 C.ar      1 <0>         0.1218
      7 C6          2.0771   -5.4471   -0.2918 C.ar      1 <0>         0.0081
      8 C7          3.0008   -6.4722   -0.2037 C.ar      1 <0>         0.0541
      9 O2          2.4199   -7.7060   -0.2734 O.3       1 <0>        -0.3140
     10 C8          1.0352   -7.3559   -0.4154 C.3       1 <0>         0.3203
     11 O3          0.8117   -5.9367   -0.4274 O.3       1 <0>        -0.3421
     12 O4          1.6505   -3.0201   -0.3072 O.3       1 <0>        -0.3208
     13 C9          0.2479   -3.2191   -0.4019 C.3       1 <0>         0.1155
     14 C10         4.3724   -2.4285   -0.0204 C.3       1 <0>        -0.0035
     15 C11         4.3626   -1.8977    1.3837 C.2       1 <0>        -0.1533
     16 C12         5.4640   -1.5589    2.0641 C.2       1 <0>        -0.2265
     17 H1          7.0480   -8.0939    0.2238 H         1 <0>         0.0705
     18 H2          6.9620   -6.5806   -0.6859 H         1 <0>         0.0316
     19 H3          6.7659   -6.5911    1.1109 H         1 <0>         0.0330
     20 H4          5.8262   -4.6657    0.1117 H         1 <0>         0.1472
     21 H5          0.6583   -7.7796   -1.3532 H         1 <0>         0.0704
     22 H6          0.4732   -7.7937    0.4175 H         1 <0>         0.0704
     23 H7         -0.2262   -2.2327   -0.4179 H         1 <0>         0.0624
     24 H8         -0.0173   -3.7241   -1.3359 H         1 <0>         0.0454
     25 H9         -0.1374   -3.7527    0.4726 H         1 <0>         0.0444
     26 H10         5.3847   -2.3946   -0.4445 H         1 <0>         0.0480
     27 H11         3.7775   -1.7662   -0.6610 H         1 <0>         0.0738
     28 H12         3.3949   -1.7711    1.8633 H         1 <0>         0.1301
     29 H13         5.3890   -1.1738    3.0754 H         1 <0>         0.1124
     30 H14         6.4531   -1.6589    1.6307 H         1 <0>         0.1077
@<TRIPOS>BOND
     1    1    2 1
     2    1   17 1
     3    1   18 1
     4    1   19 1
     5    2    3 1
     6    3    8 ar
     7    3    4 ar
     8    4    5 ar
     9    4   20 1
    10    5    6 ar
    11    5   14 1
    12    6    7 ar
    13    6   12 1
    14    7   11 1
    15    7    8 ar
    16    8    9 1
    17    9   10 1
    18   10   11 1
    19   10   21 1
    20   10   22 1
    21   12   13 1
    22   13   23 1
    23   13   24 1
    24   13   25 1
    25   14   15 1
    26   14   26 1
    27   14   27 1
    28   15   16 2
    29   15   28 1
    30   16   29 1
    31   16   30 1
@<TRIPOS>MOLECULE
ZINC00000052
   35    38     0     0     0
SMALL
USER_CHARGES

@<TRIPOS>ATOM
      1 C1         -0.7084    8.4253    6.8797 C.3       1 <0>         0.1198
      2 O1         -0.1942    7.3049    6.1701 O.3       1 <0>        -0.3304
      3 C2          1.1059    6.9252    6.4210 C.ar      1 <0>         0.1362
      4 C3          1.9316    7.5828    7.3297 C.ar      1 <0>        -0.2204
      5 C4          3.2259    7.1354    7.5190 C.ar      1 <0>        -0.1094
      6 C5          3.6983    6.0315    6.8056 C.ar      1 <0>        -0.1421
      7 C6          2.9120    5.3115    5.8677 C.ar      1 <0>         0.0247
      8 C7          1.5887    5.7991    5.6917 C.ar      1 <0>        -0.0490
      9 C8          0.7583    5.1391    4.7861 C.ar      1 <0>        -0.1067
     10 C9          1.2136    4.0405    4.0517 C.ar      1 <0>        -0.0754
     11 C10         2.5267    3.5063    4.1439 C.ar      1 <0>        -0.0121
     12 C11         3.3802    4.1482    5.1048 C.ar      1 <0>        -0.0059
     13 C12         4.6676    3.5750    5.2467 C.ar      1 <0>         0.0184
     14 C13         5.1196    2.4950    4.5194 C.ar      1 <0>         0.0596
     15 C14         4.3434    1.8917    3.5733 C.ar      1 <0>        -0.0912
     16 C15         3.0527    2.3940    3.3669 C.ar      1 <0>        -0.0828
     17 C16         2.3030    1.7274    2.2545 C.2       1 <0>         0.9011
     18 O2          2.2170    2.3767    1.1687 O.co2     1 <0>        -0.7870
     19 O3          6.3895    2.1158    4.8270 O.3       1 <0>        -0.3395
     20 C17         6.7161    3.0674    5.8460 C.3       1 <0>         0.3230
     21 O4          5.6451    3.9839    6.1159 O.3       1 <0>        -0.3567
     22 N1          0.1853    3.4338    3.2332 N.pl3     1 <0>         0.3228
     23 O5         -0.3523    2.4119    3.6790 O.2       1 <0>        -0.1911
     24 O6         -0.1222    4.0238    2.1891 O.3       1 <0>        -0.1858
     25 H1         -1.7424    8.5783    6.5560 H         1 <0>         0.0629
     26 H2         -0.7231    8.2369    7.9582 H         1 <0>         0.0285
     27 H3         -0.1482    9.3352    6.6409 H         1 <0>         0.0293
     28 H4          1.6015    8.4428    7.9022 H         1 <0>         0.1267
     29 H5          3.8798    7.6432    8.2228 H         1 <0>         0.1218
     30 H6          4.7267    5.7620    7.0153 H         1 <0>         0.1565
     31 H7         -0.2707    5.4706    4.6465 H         1 <0>         0.1597
     32 H8          4.7248    1.0579    2.9919 H         1 <0>         0.1710
     33 H9          6.9606    2.5293    6.7689 H         1 <0>         0.0541
     34 H10         7.5968    3.6379    5.5297 H         1 <0>         0.0535
     35 O7          1.8576    0.5638    2.4907 O.co2     1 <0>        -0.7841
@<TRIPOS>BOND
     1    1    2 1
     2    1   25 1
     3    1   26 1
     4    1   27 1
     5    2    3 1
     6    3    8 ar
     7    3    4 ar
     8    4    5 ar
     9    4   28 1
    10    5    6 ar
    11    5   29 1
    12    6    7 ar
    13    6   30 1
    14    7   12 ar
    15    7    8 ar
    16    8    9 ar
    17    9   10 ar
    18    9   31 1
    19   10   11 ar
    20   10   22 1
    21   11   16 ar
    22   11   12 ar
    23   12   13 ar
    24   13   21 1
    25   13   14 ar
    26   14   15 ar
    27   14   19 1
    28   15   16 ar
    29   15   32 1
    30   16   17 1
    31   17   18 2
    32   17   35 1
    33   19   20 1
    34   20   21 1
    35   20   33 1
    36   20   34 1
    37   22   23 2
    38   22   24 1
@<TRIPOS>MOLECULE
ZINC00000053
   20    20     0     0     0
SMALL
USER_CHARGES

@<TRIPOS>ATOM
      1 C1          7.6188   -2.2856    1.6780 C.3       1 <0>        -0.1488
      2 C2          6.7461   -2.9309    2.7131 C.2       1 <0>         0.6646
      3 O1          6.3453   -2.3679    3.7233 O.2       1 <0>        -0.5537
      4 O2          6.4916   -4.2420    2.3241 O.3       1 <0>        -0.3475
      5 C3          5.6587   -4.9390    3.2094 C.ar      1 <0>         0.1213
      6 C4          6.2287   -5.4409    4.3860 C.ar      1 <0>        -0.1552
      7 C5          5.4496   -6.1896    5.2627 C.ar      1 <0>        -0.1518
      8 C6          4.1156   -6.4475    4.9557 C.ar      1 <0>        -0.1618
      9 C7          3.5591   -5.9607    3.7686 C.ar      1 <0>        -0.1040
     10 C8          4.3219   -5.1986    2.8677 C.ar      1 <0>        -0.1096
     11 C9          3.6901   -4.7045    1.5919 C.2       1 <0>         0.9173
     12 O3          4.1312   -3.6227    1.0936 O.co2     1 <0>        -0.8245
     13 H1          7.8181   -1.2498    1.9674 H         1 <0>         0.0522
     14 H2          8.5707   -2.8183    1.6115 H         1 <0>         0.0525
     15 H3          7.1088   -2.2843    0.7114 H         1 <0>         0.0945
     16 H4          7.2727   -5.2513    4.6181 H         1 <0>         0.1185
     17 H5          5.8814   -6.5762    6.1810 H         1 <0>         0.1050
     18 H6          3.5055   -7.0333    5.6374 H         1 <0>         0.1064
     19 H7          2.5156   -6.1826    3.5549 H         1 <0>         0.1546
     20 O4          2.7472   -5.4083    1.1106 O.co2     1 <0>        -0.8299
@<TRIPOS>BOND
     1    1    2 1
     2    1   13 1
     3    1   14 1
     4    1   15 1
     5    2    3 2
     6    2    4 1
     7    4    5 1
     8    5   10 ar
     9    5    6 ar
    10    6    7 ar
    11    6   16 1
    12    7    8 ar
    13    7   17 1
    14    8    9 ar
    15    8   18 1
    16    9   10 ar
    17    9   19 1
    18   10   11 1
    19   11   12 2
    20   11   20 1
@<TRIPOS>MOLECULE
ZINC00000111
   33    34     0     0     0
SMALL
USER_CHARGES

@<TRIPOS>ATOM
      1 C1          6.1420  -10.3445    0.6028 C.3       1 <0>        -0.0913
      2 C2          5.3939  -10.8435   -0.6286 C.3       1 <0>        -0.0565
      3 C3          3.9004  -10.4442   -0.6281 C.3       1 <0>        -0.1711
      4 C4          3.6883   -8.9463   -0.7536 C.ar      1 <0>         0.0142
      5 C5          4.2190   -8.2047   -1.8166 C.ar      1 <0>        -0.1324
      6 C6          4.0018   -6.8254   -1.9078 C.ar      1 <0>        -0.1167
      7 C7          3.2448   -6.1417   -0.9428 C.ar      1 <0>        -0.0980
      8 C8          2.7096   -6.8928    0.1160 C.ar      1 <0>        -0.1202
      9 C9          2.9249   -8.2722    0.2080 C.ar      1 <0>        -0.1447
     10 C10         3.0169   -4.6877   -1.0397 C.ar      1 <0>         0.0045
     11 C11         2.5958   -4.0963   -2.2442 C.ar      1 <0>        -0.1257
     12 C12         2.3796   -2.7185   -2.3360 C.ar      1 <0>        -0.1360
     13 C13         2.5808   -1.9047   -1.2249 C.ar      1 <0>        -0.1496
     14 C14         2.9976   -2.4677   -0.0222 C.ar      1 <0>        -0.1373
     15 C15         3.2131   -3.8456    0.0695 C.ar      1 <0>        -0.1311
     16 C16         3.1456  -11.1270   -1.7780 C.2       1 <0>         0.9226
     17 O1          3.8182  -11.4269   -2.8041 O.co2     1 <0>        -0.8335
     18 H1          7.1755  -10.7050    0.5849 H         1 <0>         0.0055
     19 H2          6.1706   -9.2514    0.6399 H         1 <0>         0.0238
     20 H3          5.6735  -10.7099    1.5221 H         1 <0>         0.0174
     21 H4          5.9108  -10.4794   -1.5244 H         1 <0>         0.0518
     22 H5          5.4703  -11.9384   -0.6527 H         1 <0>         0.0481
     23 H6          3.5174  -10.7830    0.3499 H         1 <0>         0.0454
     24 H7          4.8056   -8.6922   -2.5915 H         1 <0>         0.1544
     25 H8          4.4425   -6.2889   -2.7458 H         1 <0>         0.1147
     26 H9          2.1035   -6.4133    0.8820 H         1 <0>         0.1126
     27 H10         2.4861   -8.8167    1.0408 H         1 <0>         0.1280
     28 H11         2.4204   -4.7076   -3.1273 H         1 <0>         0.1393
     29 H12         2.0520   -2.2834   -3.2759 H         1 <0>         0.1201
     30 H13         2.4130   -0.8341   -1.2961 H         1 <0>         0.1171
     31 H14         3.1579   -1.8358    0.8468 H         1 <0>         0.1181
     32 H15         3.5482   -4.2548    1.0205 H         1 <0>         0.1324
     33 O2          1.9144  -11.3182   -1.5508 O.co2     1 <0>        -0.8261
@<TRIPOS>BOND
     1    1    2 1
     2    1   18 1
     3    1   19 1
     4    1   20 1
     5    2    3 1
     6    2   21 1
     7    2   22 1
     8    3    4 1
     9    3   16 1
    10    3   23 1
    11    4    9 ar
    12    4    5 ar
    13    5    6 ar
    14    5   24 1
    15    6    7 ar
    16    6   25 1
    17    7    8 ar
    18    7   10 1
    19    8    9 ar
    20    8   26 1
    21    9   27 1
    22   10   15 ar
    23   10   11 ar
    24   11   12 ar
    25   11   28 1
    26   12   13 ar
    27   12   29 1
    28   13   14 ar
    29   13   30 1
    30   14   15 ar
    31   14   31 1
    32   15   32 1
    33   16   17 2
    34   16   33 1
@<TRIPOS>MOLECULE
ZINC00000181
   48    51     0     0     0
SMALL
USER_CHARGES

@<TRIPOS>ATOM
      1 C1          3.3570   -4.7554   -4.0975 C.3       1 <0>         0.0846
      2 C2          4.0299   -2.3691   -3.9127 C.3       1 <0>         0.1186
      3 C3          4.9337   -1.3935   -3.1717 C.3       1 <0>        -0.1036
      4 C4          4.9058   -1.5792   -1.6266 C.3       1 <0>         0.0345
      5 C5          4.7811   -0.1942   -0.9352 C.3       1 <0>        -0.1783
      6 C6          3.4289    0.4738   -1.1554 C.2       1 <0>         0.5372
      7 O1          3.3208    1.6992   -1.1097 O.2       1 <0>        -0.4689
      8 C7          2.2275   -0.3784   -1.3959 C.2       1 <0>         0.0325
      9 C8          2.3648   -1.7106   -1.4277 C.2       1 <0>        -0.2010
     10 C9          3.6812   -2.4037   -1.1766 C.3       1 <0>        -0.0493
     11 C10         3.7577   -3.7880   -1.8312 C.3       1 <0>         0.1393
     12 C11         4.8671   -4.5469   -1.0800 C.3       1 <0>        -0.0558
     13 C12         6.1414   -3.7333   -0.9399 C.ar      1 <0>        -0.1296
     14 C13         6.1950   -2.3373   -1.1979 C.ar      1 <0>        -0.1109
     15 C14         7.4610   -1.7205   -1.1127 C.ar      1 <0>         0.1332
     16 C15         8.6148   -2.4181   -0.7088 C.ar      1 <0>         0.0735
     17 C16         8.5191   -3.7713   -0.4033 C.ar      1 <0>        -0.1482
     18 C17         7.2943   -4.4230   -0.5269 C.ar      1 <0>        -0.1152
     19 O2          9.7673   -1.6747   -0.6607 O.3       1 <0>        -0.3415
     20 C18        10.9528   -2.3459   -0.2498 C.3       1 <0>         0.1168
     21 O3          7.6025   -0.4037   -1.4717 O.3       1 <0>        -0.5010
     22 O4          1.0103    0.2226   -1.6445 O.3       1 <0>        -0.3342
     23 C19         0.4014    0.6611   -0.4316 C.3       1 <0>         0.1145
     24 H1          8.5380   -0.1614   -1.3491 H         1 <0>         0.4595
     25 H2          3.7195   -4.7482   -5.1288 H         1 <0>         0.1012
     26 H3          3.5319   -5.7366   -3.6485 H         1 <0>         0.0995
     27 H4          2.2996   -4.4808   -4.0527 H         1 <0>         0.1035
     28 H5          4.3445   -2.4392   -4.9604 H         1 <0>         0.0986
     29 H6          2.9754   -2.0780   -3.9043 H         1 <0>         0.1126
     30 H7          5.9555   -1.4992   -3.5593 H         1 <0>         0.0854
     31 H8          4.6276   -0.3799   -3.4592 H         1 <0>         0.1047
     32 H9          4.9345   -0.2791    0.1478 H         1 <0>         0.0947
     33 H10         5.5190    0.5120   -1.3269 H         1 <0>         0.1206
     34 H11         1.4822   -2.3245   -1.5905 H         1 <0>         0.1528
     35 H12         3.6853   -2.5002   -0.0729 H         1 <0>         0.1122
     36 H13         2.8152   -4.3521   -1.7268 H         1 <0>         0.1071
     37 H14         4.5144   -4.7949   -0.0704 H         1 <0>         0.1029
     38 H15         5.0833   -5.4931   -1.5918 H         1 <0>         0.0673
     39 H16         9.3768   -4.3547   -0.0845 H         1 <0>         0.1626
     40 H17         7.2429   -5.4874   -0.3057 H         1 <0>         0.1476
     41 H18        11.7691   -1.6173   -0.2607 H         1 <0>         0.0870
     42 H19        10.8580   -2.7240    0.7734 H         1 <0>         0.0485
     43 H20        11.2138   -3.1483   -0.9476 H         1 <0>         0.0436
     44 H21        -0.5803    1.0757   -0.6792 H         1 <0>         0.0834
     45 H22         0.2527   -0.1773    0.2579 H         1 <0>         0.0299
     46 H23         0.9894    1.4481    0.0509 H         1 <0>         0.0567
     47 N1          4.1554   -3.7341   -3.3179 N.4       1 <0>        -0.6809
     48 H24         5.1385   -4.0391   -3.4374 H         1 <0>         0.4518
@<TRIPOS>BOND
     1    1   25 1
     2    1   26 1
     3    1   27 1
     4    1   47 1
     5    2    3 1
     6    2   28 1
     7    2   29 1
     8    2   47 1
     9    3    4 1
    10    3   30 1
    11    3   31 1
    12    4   10 1
    13    4   14 1
    14    4    5 1
    15    5    6 1
    16    5   32 1
    17    5   33 1
    18    6    7 2
    19    6    8 1
    20    8    9 2
    21    8   22 1
    22    9   10 1
    23    9   34 1
    24   10   11 1
    25   10   35 1
    26   11   12 1
    27   11   36 1
    28   11   47 1
    29   12   13 1
    30   12   37 1
    31   12   38 1
    32   13   18 ar
    33   13   14 ar
    34   14   15 ar
    35   15   16 ar
    36   15   21 1
    37   16   17 ar
    38   16   19 1
    39   17   18 ar
    40   17   39 1
    41   18   40 1
    42   19   20 1
    43   20   41 1
    44   20   42 1
    45   20   43 1
    46   21   24 1
    47   22   23 1
    48   23   44 1
    49   23   45 1
    50   23   46 1
    51   47   48 1
@<TRIPOS>MOLECULE
ZINC00000185
   55    58     0     0     0
SMALL
USER_CHARGES

@<TRIPOS>ATOM
      1 C1          2.3855   -7.8050    3.1263 C.3       1 <0>        -0.0797
      2 C2          3.2890   -6.8252    3.9059 C.3       1 <0>        -0.0101
      3 C3          4.5671   -7.5932    4.3597 C.3       1 <0>        -0.0708
      4 C4          5.5363   -7.8789    3.2217 C.3       1 <0>        -0.1813
      5 C5          5.8965   -6.6094    2.4963 C.2       1 <0>         0.5676
      6 O1          6.9858   -6.4646    1.9449 O.2       1 <0>        -0.5388
      7 C6          4.8711   -5.5467    2.3860 C.2       1 <0>        -0.2665
      8 C7          3.6746   -5.6547    2.9884 C.2       1 <0>        -0.0240
      9 C8          2.6369   -4.5677    2.7705 C.3       1 <0>        -0.0568
     10 C9          1.9464   -4.0951    4.0586 C.3       1 <0>        -0.0711
     11 C10         1.3984   -5.3079    4.8203 C.3       1 <0>        -0.0424
     12 C11         2.6103   -6.2174    5.1900 C.3       1 <0>        -0.0441
     13 C12         2.1640   -7.2670    6.2318 C.3       1 <0>         0.1530
     14 C13         1.7852   -6.5673    7.5730 C.3       1 <0>        -0.1047
     15 C14         1.1766   -5.1393    7.4100 C.3       1 <0>        -0.0277
     16 C15         0.4874   -5.0455    6.0391 C.3       1 <0>        -0.0658
     17 C16        -0.3038   -3.7423    6.1336 C.3       1 <0>        -0.0685
     18 C17        -0.7870   -3.7107    7.6026 C.3       1 <0>        -0.0704
     19 C18         0.0452   -4.7692    8.3906 C.3       1 <0>        -0.1618
     20 C19        -0.8400   -5.9632    8.7557 C.2       1 <0>         0.5332
     21 O2         -1.6137   -6.4893    7.9561 O.2       1 <0>        -0.5245
     22 C20        -0.7227   -6.4609   10.1872 C.3       1 <0>         0.0282
     23 O3         -1.4391   -7.6646   10.3700 O.3       1 <0>        -0.5867
     24 C21         2.3136   -4.0925    7.6109 C.3       1 <0>        -0.0895
     25 O4          1.0351   -7.9777    5.7438 O.3       1 <0>        -0.5959
     26 H1         -2.3649   -7.4920   10.1257 H         1 <0>         0.4183
     27 H2          0.7748   -8.6254    6.4205 H         1 <0>         0.4035
     28 H3          2.2145   -8.7315    3.6835 H         1 <0>         0.0597
     29 H4          1.4106   -7.3777    2.8773 H         1 <0>         0.0445
     30 H5          2.8445   -8.0940    2.1731 H         1 <0>         0.0337
     31 H6          5.1003   -7.0037    5.1188 H         1 <0>         0.0451
     32 H7          4.3040   -8.5462    4.8333 H         1 <0>         0.0512
     33 H8          6.4533   -8.3143    3.6343 H         1 <0>         0.0724
     34 H9          5.1185   -8.5882    2.5006 H         1 <0>         0.0733
     35 H10         5.1230   -4.6993    1.7571 H         1 <0>         0.1465
     36 H11         3.0779   -3.6937    2.2753 H         1 <0>         0.0531
     37 H12         1.8760   -4.9580    2.0820 H         1 <0>         0.0597
     38 H13         2.6493   -3.5251    4.6766 H         1 <0>         0.0458
     39 H14         1.1329   -3.4147    3.7830 H         1 <0>         0.0481
     40 H15         0.7265   -5.7923    4.0895 H         1 <0>         0.0661
     41 H16         3.3743   -5.5712    5.6514 H         1 <0>         0.0530
     42 H17         2.9719   -7.9724    6.4671 H         1 <0>         0.0317
     43 H18         1.1157   -7.2380    8.1174 H         1 <0>         0.0467
     44 H19         2.6911   -6.4963    8.1895 H         1 <0>         0.0499
     45 H20        -0.2983   -5.8177    5.9292 H         1 <0>         0.0797
     46 H21         0.3170   -2.8639    5.9299 H         1 <0>         0.0425
     47 H22        -1.1466   -3.7214    5.4351 H         1 <0>         0.0529
     48 H23        -0.6198   -2.7095    8.0167 H         1 <0>         0.0453
     49 H24        -1.8639   -3.9047    7.6583 H         1 <0>         0.0569
     50 H25         0.3951   -4.2988    9.3239 H         1 <0>         0.0639
     51 H26         0.3285   -6.6495   10.4201 H         1 <0>         0.0861
     52 H27        -1.1186   -5.7020   10.8676 H         1 <0>         0.0517
     53 H28         2.7164   -4.1744    8.6284 H         1 <0>         0.0321
     54 H29         3.1610   -4.1901    6.9377 H         1 <0>         0.0444
     55 H30         1.9498   -3.0649    7.5070 H         1 <0>         0.0413
@<TRIPOS>BOND
     1    1    2 1
     2    1   28 1
     3    1   29 1
     4    1   30 1
     5    2    8 1
     6    2   12 1
     7    2    3 1
     8    3    4 1
     9    3   31 1
    10    3   32 1
    11    4    5 1
    12    4   33 1
    13    4   34 1
    14    5    6 2
    15    5    7 1
    16    7    8 2
    17    7   35 1
    18    8    9 1
    19    9   10 1
    20    9   36 1
    21    9   37 1
    22   10   11 1
    23   10   38 1
    24   10   39 1
    25   11   16 1
    26   11   12 1
    27   11   40 1
    28   12   13 1
    29   12   41 1
    30   13   14 1
    31   13   25 1
    32   13   42 1
    33   14   15 1
    34   14   43 1
    35   14   44 1
    36   15   19 1
    37   15   16 1
    38   15   24 1
    39   16   17 1
    40   16   45 1
    41   17   18 1
    42   17   46 1
    43   17   47 1
    44   18   19 1
    45   18   48 1
    46   18   49 1
    47   19   20 1
    48   19   50 1
    49   20   21 2
    50   20   22 1
    51   22   23 1
    52   22   51 1
    53   22   52 1
    54   23   26 1
    55   24   53 1
    56   24   54 1
    57   24   55 1
    58   25   27 1
@<TRIPOS>MOLECULE
ZINC00000199
   51    53     0     0     0
SMALL
USER_CHARGES

@<TRIPOS>ATOM
      1 C1          7.1980    2.6147    3.1283 C.ar      1 <0>        -0.1027
      2 C2          6.6447    1.3837    3.4637 C.ar      1 <0>        -0.1261
      3 C3          5.4381    0.9678    2.8883 C.ar      1 <0>        -0.1321
      4 C4          4.7507    1.7782    1.9719 C.ar      1 <0>        -0.1429
      5 C5          5.3451    3.0146    1.6362 C.ar      1 <0>        -0.1118
      6 C6          6.5492    3.4303    2.2098 C.ar      1 <0>        -0.1157
      7 C7          3.4147    1.3866    1.2843 C.3       1 <0>         0.2373
      8 C8          3.0184   -0.1053    1.5396 C.3       1 <0>        -0.1302
      9 C9          2.3764   -0.4847    2.8737 C.3       1 <0>         0.1162
     10 C10         1.0254   -2.3313    3.8977 C.3       1 <0>         0.1124
     11 C11         0.7385   -3.8247    3.8411 C.3       1 <0>        -0.1069
     12 C12         1.9841   -4.6509    4.1358 C.3       1 <0>        -0.0985
     13 C13         3.1345   -4.2531    3.2195 C.3       1 <0>        -0.1072
     14 C14         3.4132   -2.7581    3.2821 C.3       1 <0>         0.1080
     15 C15         2.3323    2.4378    1.7026 C.3       1 <0>        -0.0763
     16 C16         0.9054    2.1702    1.1775 C.3       1 <0>        -0.0747
     17 C17        -0.0472    2.6410    2.2770 C.3       1 <0>        -0.0843
     18 C18         0.8027    3.4702    3.2253 C.3       1 <0>        -0.0863
     19 C19         2.1566    2.7766    3.1885 C.3       1 <0>        -0.0743
     20 O1          3.5935    1.5012   -0.1308 O.3       1 <0>        -0.5975
     21 H1          4.4570    1.1172   -0.3615 H         1 <0>         0.4175
     22 H2          8.1347    2.9329    3.5758 H         1 <0>         0.1531
     23 H3          7.1548    0.7377    4.1733 H         1 <0>         0.1386
     24 H4          5.0729   -0.0102    3.1782 H         1 <0>         0.1004
     25 H5          4.8708    3.6731    0.9112 H         1 <0>         0.1517
     26 H6          6.9785    4.3894    1.9343 H         1 <0>         0.1516
     27 H7          3.8951   -0.7326    1.3347 H         1 <0>         0.0579
     28 H8          2.3177   -0.4040    0.7458 H         1 <0>         0.0811
     29 H9          1.3859   -0.0297    2.9495 H         1 <0>         0.1137
     30 H10         2.9644   -0.2099    3.7522 H         1 <0>         0.1072
     31 H11         1.3326   -2.0084    4.8986 H         1 <0>         0.1019
     32 H12         0.1424   -1.7653    3.5831 H         1 <0>         0.1011
     33 H13        -0.0475   -4.0746    4.5625 H         1 <0>         0.1023
     34 H14         0.3535   -4.0873    2.8477 H         1 <0>         0.0695
     35 H15         2.2815   -4.5047    5.1814 H         1 <0>         0.0670
     36 H16         1.7614   -5.7166    4.0119 H         1 <0>         0.0923
     37 H17         4.0371   -4.8063    3.5024 H         1 <0>         0.1011
     38 H18         2.8957   -4.5397    2.1876 H         1 <0>         0.0698
     39 H19         4.1830   -2.4898    2.5544 H         1 <0>         0.1016
     40 H20         3.7318   -2.4445    4.2824 H         1 <0>         0.1009
     41 H21         2.6164    3.3858    1.2175 H         1 <0>         0.0835
     42 H22         0.7366    2.7410    0.2565 H         1 <0>         0.0705
     43 H23         0.7072    1.1231    0.9371 H         1 <0>         0.0205
     44 H24        -0.8923    3.2086    1.8761 H         1 <0>         0.0654
     45 H25        -0.4536    1.7715    2.8074 H         1 <0>         0.0232
     46 H26         0.8927    4.4974    2.8523 H         1 <0>         0.0623
     47 H27         0.3822    3.5093    4.2342 H         1 <0>         0.0550
     48 H28         2.1363    1.8954    3.8306 H         1 <0>         0.0138
     49 H29         2.9453    3.4387    3.5594 H         1 <0>         0.0666
     50 N1          2.1515   -1.9915    2.9408 N.4       1 <0>        -0.6901
     51 H30         1.8444   -2.2939    2.0058 H         1 <0>         0.4429
@<TRIPOS>BOND
     1    1    6 ar
     2    1    2 ar
     3    1   22 1
     4    2    3 ar
     5    2   23 1
     6    3    4 ar
     7    3   24 1
     8    4    5 ar
     9    4    7 1
    10    5    6 ar
    11    5   25 1
    12    6   26 1
    13    7    8 1
    14    7   15 1
    15    7   20 1
    16    8    9 1
    17    8   27 1
    18    8   28 1
    19    9   29 1
    20    9   30 1
    21    9   50 1
    22   10   11 1
    23   10   31 1
    24   10   32 1
    25   10   50 1
    26   11   12 1
    27   11   33 1
    28   11   34 1
    29   12   13 1
    30   12   35 1
    31   12   36 1
    32   13   14 1
    33   13   37 1
    34   13   38 1
    35   14   39 1
    36   14   40 1
    37   14   50 1
    38   15   19 1
    39   15   16 1
    40   15   41 1
    41   16   17 1
    42   16   42 1
    43   16   43 1
    44   17   18 1
    45   17   44 1
    46   17   45 1
    47   18   19 1
    48   18   46 1
    49   18   47 1
    50   19   48 1
    51   19   49 1
    52   20   21 1
    53   50   51 1
@<TRIPOS>MOLECULE
ZINC00000204
   20    20     0     0     0
SMALL
USER_CHARGES

@<TRIPOS>ATOM
      1 C1          5.4602   -9.5655   -1.4844 C.3       1 <0>        -0.0730
      2 C2          4.2742   -8.7348   -1.1231 C.2       1 <0>         0.1852
      3 C3          3.2247   -9.1831   -0.4257 C.2       1 <0>        -0.2911
      4 C4          2.1370   -8.2932   -0.1299 C.2       1 <0>         0.2720
      5 O1          1.1480   -8.8726    0.6306 O.3       1 <0>        -0.4727
      6 C5          2.1494   -7.0234   -0.5697 C.2       1 <0>        -0.4173
      7 C6          3.3153   -6.5198   -1.3383 C.2       1 <0>         0.7559
      8 O2          3.3549   -5.3639   -1.7481 O.2       1 <0>        -0.5560
      9 O3          4.3360   -7.3992   -1.5815 O.3       1 <0>        -0.3309
     10 C7          1.0161   -6.1132   -0.2580 C.2       1 <0>         0.5881
     11 O4          1.1776   -5.1585    0.4985 O.2       1 <0>        -0.4934
     12 C8         -0.3086   -6.3872   -0.9208 C.3       1 <0>        -0.2079
     13 H1          6.3704   -9.1292   -1.0610 H         1 <0>         0.0782
     14 H2          5.3721  -10.5909   -1.1108 H         1 <0>         0.0647
     15 H3          5.5724   -9.6113   -2.5722 H         1 <0>         0.0768
     16 H4          3.1751  -10.2075   -0.0718 H         1 <0>         0.1755
     17 H5          0.4984   -8.2001    0.8920 H         1 <0>         0.4379
     18 H6         -0.6209   -5.4979   -1.4749 H         1 <0>         0.0862
     19 H7         -0.2347   -7.2201   -1.6256 H         1 <0>         0.0583
     20 H8         -1.0514   -6.6336   -0.1579 H         1 <0>         0.0635
@<TRIPOS>BOND
     1    1    2 1
     2    1   13 1
     3    1   14 1
     4    1   15 1
     5    2    9 1
     6    2    3 2
     7    3    4 1
     8    3   16 1
     9    4    6 2
    10    4    5 1
    11    5   17 1
    12    6    7 1
    13    6   10 1
    14    7    8 2
    15    7    9 1
    16   10   12 1
    17   10   11 2
    18   12   18 1
    19   12   19 1
    20   12   20 1
@<TRIPOS>MOLECULE
ZINC00000212
   29    30     0     0     0
SMALL
USER_CHARGES

@<TRIPOS>ATOM
      1 C1          2.7304   -1.2281   -0.3548 C.3       1 <0>         0.0740
      2 N1          3.8519   -0.3687    0.0158 N.am      1 <0>        -0.4452
      3 C2          3.9219    0.2342    1.3684 C.3       1 <0>         0.0304
      4 S1          4.5681    1.9103    1.3426 S.o2      1 <0>         1.2566
      5 O1          5.2829    2.1183    2.5883 O.2       1 <0>        -0.6321
      6 O2          3.5441    2.8407    0.9080 O.2       1 <0>        -0.6246
      7 C3          5.7788    1.8433    0.0391 C.3       1 <0>        -0.3246
      8 C4          6.1693    0.4172   -0.2795 C.3       1 <0>        -0.1177
      9 C5          4.9811   -0.3579   -0.8166 C.2       1 <0>         0.6799
     10 O3          5.0610   -0.9369   -1.9002 O.2       1 <0>        -0.6073
     11 C6          2.6284    0.2489    2.1834 C.ar      1 <0>        -0.1176
     12 C7          2.6167   -0.3409    3.4580 C.ar      1 <0>        -0.0887
     13 C8          1.4610   -0.3366    4.2429 C.ar      1 <0>        -0.1231
     14 C9          0.2933    0.2630    3.7701 C.ar      1 <0>         0.0353
     15 C10         0.2861    0.8616    2.5083 C.ar      1 <0>         0.0124
     16 C11         1.4468    0.8553    1.7251 C.ar      1 <0>        -0.0800
     17 Cl1        -1.1217    1.6254    1.8590 Cl        1 <0>        -0.0546
     18 Cl2        -1.1023    0.2344    4.7877 Cl        1 <0>        -0.0555
     19 H1          1.8369   -0.6196   -0.5051 H         1 <0>         0.0448
     20 H2          2.9267   -1.7652   -1.2869 H         1 <0>         0.0834
     21 H3          2.5655   -1.9670    0.4346 H         1 <0>         0.0368
     22 H4          4.5979   -0.4532    1.9104 H         1 <0>         0.0909
     23 H5          5.3368    2.3251   -0.8396 H         1 <0>         0.1367
     24 H6          6.6455    2.4284    0.3598 H         1 <0>         0.1329
     25 H7          6.9536    0.4169   -1.0448 H         1 <0>         0.0988
     26 H8          6.5677   -0.1023    0.5988 H         1 <0>         0.0756
     27 H9          3.5129   -0.8112    3.8573 H         1 <0>         0.1475
     28 H10         1.4881   -0.8045    5.2242 H         1 <0>         0.1579
     29 H11         1.4293    1.3286    0.7452 H         1 <0>         0.1771
@<TRIPOS>BOND
     1    1    2 1
     2    1   19 1
     3    1   20 1
     4    1   21 1
     5    2    9 am
     6    2    3 1
     7    3    4 1
     8    3   11 1
     9    3   22 1
    10    4    5 2
    11    4    6 2
    12    4    7 1
    13    7    8 1
    14    7   23 1
    15    7   24 1
    16    8    9 1
    17    8   25 1
    18    8   26 1
    19    9   10 2
    20   11   16 ar
    21   11   12 ar
    22   12   13 ar
    23   12   27 1
    24   13   14 ar
    25   13   28 1
    26   14   15 ar
    27   14   18 1
    28   15   16 ar
    29   15   17 1
    30   16   29 1
