# Ligand [name]_[conformer]_[binding mode]: 1a4w_ligand_xtal_0002
# SLIDE Version: 3.3.5
# Time stamp: Tue Jul  7 15:44:36 2009
# Affiscore (kcal/mol), for ranking ligand candidates: -9.998
# Ligand Efficiency ((Affinity Score - Constant Term) / # non-H atoms): -0.114
# ===========================================================================
# Weighted term values
# hydrophobic complementarity term (kcal/mol)       : -5.322 
# polar term (kcal/mol)                             : -0.664 
# unsatisfied polar term (kcal/mol)                 : 1.206 
# constant term (kcal/mol)                          : -5.218 
# ===========================================================================
# protein-ligand hydrophobic contacts         : 83
# protein-ligand H-bond count                 : 6
# protein-ligand salt-bridge count            : 2
# metal-ligand interactions count             : 0
# unsatisfied interfacial polar atom count    : 7
# unsatisfied interfacial charged atom count  : 2
# buried carbons (x 100%)          : 0.897
# remaining vdW collisions         : 1
# total vdW overlap (A)            : 0.177
# anchor fragment translations     : 1
# side-chain mean-field iterations : 10
# ligand side-chain rotations      : 0
# protein side-chain rotations     : 22
# Orientscore (kcal/mol), used by SLIDE to select binding mode: -9.064
# ===========================================================================
# Anchor fragment atoms matched to template:
# ligand hydrophobic center  0 to template point  6 H
# ligand hydrophobic center  0 to template point  7 H
# ligand atom   50  N5   N.pl3 to template point 16 D
# ===========================================================================
#          |Ligand Atom -- Protein Atom|
#          |   #  type  -- RES   # type|
# hbond   1:  29  N.pl3 -- GLY  216  O   (dist: 3.244, D-H-A angle: 135.6)
# hbond   2:  34  O.2   -- GLY  216  N   (dist: 3.286, D-H-A angle: 167.2)
# hbond   3:  44  N.pl3 -- GLY  219  O   (dist: 2.710, D-H-A angle: 132.8)
# hbond   4:  50  N.pl3 -- ALA  190  O   (dist: 3.012, D-H-A angle: 135.4)
# hbond   5:  50  N.pl3 -- GLY  219  O   (dist: 2.902, D-H-A angle: 135.5)
# hbond   6:  82  N.2   -- LYS   60F NZ  (dist: 2.982, D-H-A angle: 176.3)
# salt bridge   1 :  50  N.pl3 -- ASP  189  OD1 (dist: 3.633)
# salt bridge   2 :  50  N.pl3 -- ASP  189  OD2 (dist: 3.046)
# ===========================================================================
@<TRIPOS>MOLECULE
1a4w_ligand_xtal
   82    85     0     0     0
SMALL
USER_CHARGES
@<TRIPOS>ATOM
      1 C1         18.3914  -16.8038   22.2845 C.ar      1 <0>       -0.3822 
      2 C2         19.2042  -16.7925   21.1248 C.ar      1 <0>       -0.0014 
      3 H1         18.8654  -17.2562   20.1984 H         1 <0>        0.1711 
      4 C3         20.4300  -16.1814   21.2005 C.ar      1 <0>       -0.1713 
      5 H2         21.0859  -16.1654   20.3300 H         1 <0>        0.1461 
      6 C4         20.8386  -15.5774   22.3978 C.ar      1 <0>       -0.0427 
      7 H3         21.8237  -15.1127   22.4403 H         1 <0>        0.1445 
      8 C5         20.0363  -15.5480   23.5335 C.ar      1 <0>       -0.0777 
      9 C6         20.3727  -14.8730   24.6752 C.ar      1 <0>        0.1351 
     10 C7         19.5125  -14.8432   25.7521 C.ar      1 <0>       -0.1191 
     11 H4         19.7697  -14.2746   26.6458 H         1 <0>        0.1558 
     12 C8         18.2971  -15.5548   25.6872 C.ar      1 <0>       -0.0870 
     13 H5         17.6516  -15.5814   26.5651 H         1 <0>        0.1400 
     14 C9         17.9034  -16.2150   24.5497 C.ar      1 <0>       -0.1696 
     15 H6         16.9459  -16.7341   24.5069 H         1 <0>        0.1458 
     16 C10        18.7454  -16.2040   23.4709 C.ar      1 <0>        0.0707 
     17 N1         21.5152  -14.0743   24.7116 N.pl3     1 <0>       -0.6621 
     18 C11        21.7534  -12.9251   23.8059 C.3       1 <0>        0.1739 
     19 H7         22.4689  -12.2425   24.2645 H         1 <0>        0.0545 
     20 H8         22.1523  -13.2856   22.8578 H         1 <0>        0.0048 
     21 H9         20.8143  -12.4009   23.6285 H         1 <0>        0.0463 
     22 C12        22.9553  -14.6751   25.0943 C.3       1 <0>        0.1729 
     23 H10        22.8344  -15.4666   25.8338 H         1 <0>        0.0566 
     24 H11        23.4286  -15.0825   24.2009 H         1 <0>        0.0085 
     25 H12        23.5811  -13.8844   25.5080 H         1 <0>        0.0537 
     26 S1         16.7102  -17.6285   22.1167 S.o2      1 <0>        1.4984 
     27 O1         16.8740  -18.0457   20.7131 O.2       1 <0>       -0.6593 
     28 O2         15.9799  -18.4253   23.1190 O.2       1 <0>       -0.6323 
     29 N2         15.3433  -16.3027   22.1848 N.pl3     1 <0>       -0.8915 
     30 H13        14.6502  -16.2114   22.9411 H         1 <0>        0.4496 
     31 C13        15.4192  -15.4138   20.9849 C.3       1 <0>        0.1868 
     32 H14        15.8807  -16.0216   20.2066 H         1 <0>        0.0964 
     33 C14        16.2824  -14.2248   21.4183 C.2       1 <0>        0.6335 
     34 O3         16.1120  -13.8588   22.5779 O.2       1 <0>       -0.6357 
     35 C15        14.0201  -14.9758   20.5777 C.3       1 <0>       -0.0814 
     36 H15        13.4425  -15.7783   20.1189 H         1 <0>        0.0713 
     37 H16        14.0260  -14.1605   19.8543 H         1 <0>        0.0523 
     38 C16        13.1848  -14.4810   21.7608 C.3       1 <0>       -0.1272 
     39 H17        13.5959  -13.5403   22.1273 H         1 <0>        0.0803 
     40 H18        13.2091  -15.2237   22.5582 H         1 <0>        0.0662 
     41 C17        11.7466  -14.2656   21.3111 C.3       1 <0>        0.1789 
     42 H19        11.4214  -15.2020   20.8578 H         1 <0>        0.0999 
     43 H20        11.7668  -13.4442   20.5948 H         1 <0>        0.0733 
     44 N3         10.9898  -13.9389   22.5004 N.pl3     1 <0>       -0.7375 
     45 H21        10.3805  -14.6883   22.8583 H         1 <0>        0.4681 
     46 C18        10.9721  -12.8129   23.1905 C.cat     1 <0>        0.6246 
     47 N4         11.6352  -11.7492   22.7332 N.pl3     1 <0>       -0.8420 
     48 H22        11.6256  -10.8680   23.2664 H         1 <0>        0.4804 
     49 H23        12.1567  -11.8093   21.8471 H         1 <0>        0.4871 
     50 N5         10.2190  -12.7619   24.2822 N.pl3     1 <0>       -0.8584 
     51 H24        10.1829  -11.8988   24.8430 H         1 <0>        0.4804 
     52 H25         9.6706  -13.5855   24.5683 H         1 <0>        0.4816 
     53 N6         17.1063  -13.5442   20.4794 N.am      1 <0>       -0.4525 
     54 C19        16.9393  -13.9487   18.9819 C.3       1 <0>        0.1019 
     55 H26        16.4072  -14.8994   19.0140 H         1 <0>        0.0491 
     56 C20        18.3771  -14.0557   18.4499 C.3       1 <0>       -0.0812 
     57 H27        18.4205  -14.1609   17.3659 H         1 <0>        0.0601 
     58 H28        18.9155  -14.9126   18.8547 H         1 <0>        0.0519 
     59 C21        19.2863  -12.7449   18.8094 C.3       1 <0>       -0.0827 
     60 H29        18.9543  -11.8318   18.3153 H         1 <0>        0.0560 
     61 H30        20.3350  -12.8488   18.5310 H         1 <0>        0.0590 
     62 C22        19.3084  -12.3825   20.3764 C.3       1 <0>       -0.0897 
     63 H31        19.7915  -11.4212   20.5515 H         1 <0>        0.0602 
     64 H32        19.8517  -13.1355   20.9472 H         1 <0>        0.0529 
     65 C23        17.9123  -12.3024   20.9362 C.3       1 <0>        0.0887 
     66 H33        17.9543  -12.2814   22.0252 H         1 <0>        0.0783 
     67 H34        17.4214  -11.4006   20.5704 H         1 <0>        0.0365 
     68 C24        16.2535  -13.0735   18.2025 C.3       1 <0>       -0.0973 
     69 H35        16.9237  -12.2503   17.9549 H         1 <0>        0.0880 
     70 H36        15.3942  -12.7205   18.7727 H         1 <0>        0.0318 
     71 C25        15.7021  -13.6430   16.8437 C.3       1 <0>       -0.1818 
     72 H37        14.6326  -13.4330   16.8235 H         1 <0>        0.0730 
     73 H38        15.9070  -14.7135   16.8431 H         1 <0>        0.0623 
     74 S2         15.8683  -15.1476   14.1381 S.3       1 <0>       -0.0524 
     75 O4         16.8399  -11.8266   15.9189 O.2       1 <0>       -0.4808 
     76 C26        17.2583  -15.5172   13.1766 C.2       1 <0>       -0.2301 
     77 H39        17.4363  -16.4786   12.6950 H         1 <0>        0.1934 
     78 C27        16.6028  -13.5798   14.3929 C.2       1 <0>        0.2787 
     79 C28        16.4262  -12.9390   15.7563 C.2       1 <0>        0.4918 
     80 C29        18.1126  -14.4356   13.0987 C.2       1 <0>        0.3266 
     81 H40        19.0461  -14.4909   12.5388 H         1 <0>        0.0597 
     82 N7         17.7465  -13.3045   13.7439 N.2       1 <0>       -0.5625 
@<TRIPOS>BOND
    1     1     2 ar
    2     1    16 ar
    3     1    26 1
    4     2     4 ar
    5     2     3 1
    6     4     6 ar
    7     4     5 1
    8     6     8 ar
    9     6     7 1
   10     8     9 ar
   11     8    16 ar
   12     9    10 ar
   13     9    17 1
   14    10    12 ar
   15    10    11 1
   16    12    14 ar
   17    12    13 1
   18    14    16 ar
   19    14    15 1
   20    17    18 1
   21    17    22 1
   22    18    19 1
   23    18    20 1
   24    18    21 1
   25    22    23 1
   26    22    24 1
   27    22    25 1
   28    26    27 2
   29    26    28 2
   30    26    29 1
   31    29    31 1
   32    29    30 1
   33    31    33 1
   34    31    35 1
   35    31    32 1
   36    33    34 2
   37    33    53 am
   38    35    38 1
   39    35    36 1
   40    35    37 1
   41    38    41 1
   42    38    39 1
   43    38    40 1
   44    41    44 1
   45    41    42 1
   46    41    43 1
   47    44    46 1
   48    44    45 1
   49    46    47 1
   50    46    50 1
   51    47    48 1
   52    47    49 1
   53    50    51 1
   54    50    52 1
   55    53    54 1
   56    53    65 1
   57    54    56 1
   58    54    68 1
   59    54    55 1
   60    56    59 1
   61    56    57 1
   62    56    58 1
   63    59    62 1
   64    59    60 1
   65    59    61 1
   66    62    65 1
   67    62    63 1
   68    62    64 1
   69    65    66 1
   70    65    67 1
   71    68    71 1
   72    68    69 1
   73    68    70 1
   74    71    79 1
   75    71    72 1
   76    71    73 1
   77    74    76 1
   78    74    78 1
   79    75    79 2
   80    76    80 2
   81    76    77 1
   82    78    79 1
   83    78    82 2
   84    80    82 1
   85    80    81 1
@<TRIPOS>SUBSTRUCTURE
