# Ligand [name]_[conformer]_[binding mode]: 1a61_ligand_xtal_0006
# SLIDE Version: 3.3.5
# Time stamp: Tue Jul  7 15:44:37 2009
# Affiscore (kcal/mol), for ranking ligand candidates: -9.890
# Ligand Efficiency ((Affinity Score - Constant Term) / # non-H atoms): -0.130
# ===========================================================================
# Weighted term values
# hydrophobic complementarity term (kcal/mol)       : -5.067 
# polar term (kcal/mol)                             : -1.079 
# unsatisfied polar term (kcal/mol)                 : 1.474 
# constant term (kcal/mol)                          : -5.218 
# ===========================================================================
# protein-ligand hydrophobic contacts         : 90
# protein-ligand H-bond count                 : 9
# protein-ligand salt-bridge count            : 4
# metal-ligand interactions count             : 0
# unsatisfied interfacial polar atom count    : 11
# unsatisfied interfacial charged atom count  : 0
# buried carbons (x 100%)          : 0.958
# remaining vdW collisions         : 2
# total vdW overlap (A)            : 0.396
# anchor fragment translations     : 1
# side-chain mean-field iterations : 10
# ligand side-chain rotations      : 6
# protein side-chain rotations     : 11
# Orientscore (kcal/mol), used by SLIDE to select binding mode: -10.510
# ===========================================================================
# Anchor fragment atoms matched to template:
# ligand hydrophobic center  0 to template point  1 H
# ligand hydrophobic center  0 to template point  7 H
# ligand hydrophobic center  0 to template point  8 H
# ===========================================================================
#          |Ligand Atom -- Protein Atom|
#          |   #  type  -- RES   # type|
# hbond   1:  12  N.3   -- GLY  216  O   (dist: 2.904, D-H-A angle: 170.6)
# hbond   2:  17  O.2   -- GLY  216  N   (dist: 3.149, D-H-A angle: 152.1)
# hbond   3:  44  O.2   -- GLY  193  N   (dist: 2.961, D-H-A angle: 137.4)
# hbond   4:  44  O.2   -- SER  195  N   (dist: 3.299, D-H-A angle: 148.5)
# hbond   5:  54  N.pl3 -- GLY  219  O   (dist: 3.384, D-H-A angle: 123.5)
# hbond   6:  57  N.pl3 -- ALA  190  O   (dist: 3.207, D-H-A angle: 134.1)
# hbond   7:  60  N.pl3 -- ALA  190  O   (dist: 3.245, D-H-A angle: 132.3)
# hbond   8:  60  N.pl3 -- GLY  219  O   (dist: 2.744, D-H-A angle: 162.5)
# hbond   9:  64  N.2   -- HIS   57  NE2 (dist: 3.233, D-H-A angle: 126.5)
# salt bridge   1 :  57  N.pl3 -- ASP  189  OD1 (dist: 3.549)
# salt bridge   2 :  57  N.pl3 -- ASP  189  OD2 (dist: 3.776)
# salt bridge   3 :  60  N.pl3 -- ASP  189  OD1 (dist: 3.882)
# salt bridge   4 :  60  N.pl3 -- ASP  189  OD2 (dist: 2.677)
# ===========================================================================
@<TRIPOS>MOLECULE
1a61_ligand_xtal
   69    72     0     0     0
SMALL
USER_CHARGES
@<TRIPOS>ATOM
      1 C1         19.8628  -15.1661   25.3340 C.ar      1 <0>       -0.0903 
      2 C2         21.0304  -15.9822   25.3377 C.ar      1 <0>       -0.1267 
      3 H1         20.9654  -17.0461   25.1098 H         1 <0>        0.1358 
      4 C3         22.2731  -15.3866   25.6422 C.ar      1 <0>       -0.1287 
      5 H2         23.1489  -16.0284   25.7376 H         1 <0>        0.1386 
      6 C4         22.4304  -14.0096   25.8270 C.ar      1 <0>       -0.1225 
      7 H3         23.4126  -13.5609   25.9754 H         1 <0>        0.1394 
      8 C5         21.2646  -13.2362   25.8121 C.ar      1 <0>       -0.1290 
      9 H4         21.3392  -12.1692   26.0219 H         1 <0>        0.1355 
     10 C6         19.9777  -13.7956   25.5313 C.ar      1 <0>       -0.1301 
     11 H5         19.0983  -13.1543   25.4728 H         1 <0>        0.1329 
     12 N1         16.5846  -16.7002   23.5991 N.3       1 <0>       -0.8958 
     13 H6         15.9819  -16.1186   24.1634 H         1 <0>        0.3564 
     14 H7         16.6401  -17.6224   24.0071 H         1 <0>        0.3631 
     15 N2         18.3338  -14.3539   21.8611 N.am      1 <0>       -0.3397 
     16 N3         19.4608  -15.0142   21.2219 N.3       1 <0>       -0.4280 
     17 O1         16.6330  -14.1378   23.3674 O.2       1 <0>       -0.7034 
     18 C7         18.6110  -16.0435   25.0153 C.3       1 <0>       -0.0348 
     19 H8         17.8157  -15.6877   25.6702 H         1 <0>        0.0597 
     20 H9         18.8990  -17.0729   25.2290 H         1 <0>        0.0764 
     21 C8         17.6250  -14.7758   22.8710 C.2       1 <0>        0.6697 
     22 C9         17.9353  -16.1032   23.5437 C.3       1 <0>        0.1544 
     23 C10        18.9983  -16.9092   22.8478 C.3       1 <0>       -0.0729 
     24 H10        18.4875  -17.6405   22.2214 H         1 <0>        0.0708 
     25 H11        19.5956  -17.3892   23.6230 H         1 <0>        0.0695 
     26 C11        20.0041  -16.1864   21.9230 C.3       1 <0>        0.1188 
     27 H12        20.8394  -15.8566   22.5408 H         1 <0>        0.0537 
     28 H13        20.3380  -16.9058   21.1753 H         1 <0>        0.0780 
     29 C12        20.2802  -13.8735   20.8220 C.3       1 <0>        0.1286 
     30 H14        21.1202  -14.1519   20.1855 H         1 <0>        0.0871 
     31 H15        20.7173  -13.3427   21.6677 H         1 <0>        0.0450 
     32 C13        19.0807  -13.0958   20.0714 C.3       1 <0>       -0.0858 
     33 H16        18.6829  -13.6622   19.2294 H         1 <0>        0.0869 
     34 H17        19.3975  -12.1318   19.6732 H         1 <0>        0.0684 
     35 C14        18.1443  -12.9920   21.2214 C.3       1 <0>        0.0588 
     36 H18        18.4037  -12.1851   21.9067 H         1 <0>        0.0775 
     37 C15        16.8846  -13.1881   20.5910 C.2       1 <0>        0.6666 
     38 O2         16.5232  -14.3069   19.9936 O.2       1 <0>       -0.5830 
     39 N4         15.6618  -12.4064   20.5500 N.am      1 <0>       -0.5612 
     40 H19        15.6910  -11.9252   21.4603 H         1 <0>        0.3200 
     41 C16        14.4026  -11.8916   19.9798 C.3       1 <0>        0.0258 
     42 H20        13.6789  -12.7067   19.9779 H         1 <0>        0.1037 
     43 C17        14.4796  -11.3667   18.5684 C.2       1 <0>        0.4889 
     44 O3         13.5046  -10.9764   17.8916 O.2       1 <0>       -0.4983 
     45 C18        13.4198  -11.2080   20.9147 C.3       1 <0>       -0.0887 
     46 H21        12.5911  -10.8323   20.3144 H         1 <0>        0.0764 
     47 H22        13.9425  -10.3912   21.4124 H         1 <0>        0.0614 
     48 C19        12.9397  -12.2343   21.9179 C.3       1 <0>       -0.1021 
     49 H23        13.7995  -12.6416   22.4498 H         1 <0>        0.0949 
     50 H24        12.4191  -13.0327   21.3892 H         1 <0>        0.0605 
     51 C20        11.9989  -11.5667   22.8962 C.3       1 <0>        0.1981 
     52 H25        11.1544  -11.1196   22.3719 H         1 <0>        0.0694 
     53 H26        12.5143  -10.7808   23.4484 H         1 <0>        0.0679 
     54 N5         11.4843  -12.5327   23.8505 N.pl3     1 <0>       -0.7556 
     55 H27        11.8254  -13.5026   23.7887 H         1 <0>        0.4804 
     56 C21        10.5899  -12.2380   24.8097 C.cat     1 <0>        0.6359 
     57 N6         10.3170  -10.9035   24.8334 N.pl3     1 <0>       -0.8561 
     58 H28         9.6465  -10.5271   25.5187 H         1 <0>        0.4805 
     59 H29        10.7812  -10.2711   24.1660 H         1 <0>        0.4837 
     60 N7          9.5461  -13.0843   25.0381 N.pl3     1 <0>       -0.8670 
     61 H30         8.8566  -12.8654   25.7713 H         1 <0>        0.4813 
     62 H31         9.4468  -13.9426   24.4774 H         1 <0>        0.4809 
     63 C22        15.3954  -12.0238   17.4889 C.2       1 <0>        0.2810 
     64 N8         16.7434  -11.7620   17.2554 N.2       1 <0>       -0.6127 
     65 C23        17.5522  -12.3159   16.2172 C.2       1 <0>        0.3251 
     66 H32        18.6059  -12.1296   16.0097 H         1 <0>        0.0509 
     67 C24        16.6950  -13.1298   15.5509 C.2       1 <0>       -0.2473 
     68 H33        17.0000  -13.6875   14.6654 H         1 <0>        0.1932 
     69 S1         15.0674  -13.2321   16.1975 S.3       1 <0>        0.0283 
@<TRIPOS>BOND
    1     1     2 ar
    2     1    10 ar
    3     1    18 1
    4     2     4 ar
    5     2     3 1
    6     4     6 ar
    7     4     5 1
    8     6     8 ar
    9     6     7 1
   10     8    10 ar
   11     8     9 1
   12    10    11 1
   13    12    22 1
   14    12    13 1
   15    12    14 1
   16    15    16 1
   17    15    21 am
   18    15    35 1
   19    16    26 1
   20    16    29 1
   21    17    21 2
   22    18    22 1
   23    18    19 1
   24    18    20 1
   25    21    22 1
   26    22    23 1
   27    23    26 1
   28    23    24 1
   29    23    25 1
   30    26    27 1
   31    26    28 1
   32    29    32 1
   33    29    30 1
   34    29    31 1
   35    32    35 1
   36    32    33 1
   37    32    34 1
   38    35    37 1
   39    35    36 1
   40    37    38 2
   41    37    39 am
   42    39    41 1
   43    39    40 1
   44    41    43 1
   45    41    45 1
   46    41    42 1
   47    43    44 2
   48    43    63 1
   49    45    48 1
   50    45    46 1
   51    45    47 1
   52    48    51 1
   53    48    49 1
   54    48    50 1
   55    51    54 1
   56    51    52 1
   57    51    53 1
   58    54    56 1
   59    54    55 1
   60    56    57 1
   61    56    60 1
   62    57    58 1
   63    57    59 1
   64    60    61 1
   65    60    62 1
   66    63    64 2
   67    63    69 1
   68    64    65 1
   69    65    67 2
   70    65    66 1
   71    67    69 1
   72    67    68 1
@<TRIPOS>SUBSTRUCTURE
