# Ligand [name]_[conformer]_[binding mode]: 1ad8_ligand_xtal_0004
# SLIDE Version: 3.3.5
# Time stamp: Tue Jul  7 15:44:37 2009
# Affiscore (kcal/mol), for ranking ligand candidates: -8.505
# Ligand Efficiency ((Affinity Score - Constant Term) / # non-H atoms): -0.082
# ===========================================================================
# Weighted term values
# hydrophobic complementarity term (kcal/mol)       : -5.552 
# polar term (kcal/mol)                             : -0.415 
# unsatisfied polar term (kcal/mol)                 : 2.680 
# constant term (kcal/mol)                          : -5.218 
# ===========================================================================
# protein-ligand hydrophobic contacts         : 101
# protein-ligand H-bond count                 : 5
# protein-ligand salt-bridge count            : 0
# metal-ligand interactions count             : 0
# unsatisfied interfacial polar atom count    : 19
# unsatisfied interfacial charged atom count  : 1
# buried carbons (x 100%)          : 1.000
# remaining vdW collisions         : 4
# total vdW overlap (A)            : 0.637
# anchor fragment translations     : 0
# side-chain mean-field iterations : 10
# ligand side-chain rotations      : 11
# protein side-chain rotations     : 9
# Orientscore (kcal/mol), used by SLIDE to select binding mode: -9.168
# ===========================================================================
# Anchor fragment atoms matched to template:
# ligand hydrophobic center  0 to template point  1 H
# ligand hydrophobic center  0 to template point  7 H
# ligand hydrophobic center  0 to template point  8 H
# ===========================================================================
#          |Ligand Atom -- Protein Atom|
#          |   #  type  -- RES   # type|
# hbond   1:  11  O.2   -- GLY  216  N   (dist: 3.207, D-H-A angle: 158.8)
# hbond   2:  48  O.3   -- CYS  191  O   (dist: 3.092, D-H-A angle: 126.6)
# hbond   3:  48  O.3   -- GLY  193  N   (dist: 2.724, D-H-A angle: 129.8)
# hbond   4:  48  O.3   -- SER  195  N   (dist: 3.370, D-H-A angle: 155.9)
# hbond   5:  56  F     -- GLY  193  N   (dist: 2.763, D-H-A angle: 139.4)
# ===========================================================================
@<TRIPOS>MOLECULE
1ad8_ligand_xtal
   70    73     0     0     0
SMALL
USER_CHARGES
@<TRIPOS>ATOM
      1 C1         15.7871  -17.1732   22.5663 C.3       1 <0>        0.1559 
      2 H1         14.9635  -17.7923   22.9220 H         1 <0>       -0.0208 
      3 H2         15.3902  -16.2534   22.1366 H         1 <0>        0.1079 
      4 H3         16.3473  -17.7168   21.8056 H         1 <0>       -0.0456 
      5 N1         16.6695  -16.8485   23.6820 N.3       1 <0>       -0.8067 
      6 H4         16.9552  -17.7391   24.1135 H         1 <0>        0.3142 
      7 C2         17.8963  -16.1209   23.4119 C.3       1 <0>        0.0270 
      8 H5         18.4810  -16.7710   22.7611 H         1 <0>        0.0106 
      9 C3         17.4571  -14.8222   22.7308 C.2       1 <0>        0.7147 
     10 N2         18.1859  -14.4223   21.6562 N.am      1 <0>       -0.4536 
     11 O1         16.4825  -14.1948   23.1631 O.2       1 <0>       -0.6020 
     12 C4         19.4285  -15.0103   21.0810 C.3       1 <0>        0.0614 
     13 H6         19.2065  -15.9156   20.5159 H         1 <0>        0.0123 
     14 H7         20.1372  -15.2708   21.8672 H         1 <0>        0.1412 
     15 C5         19.9651  -13.9029   20.1831 C.3       1 <0>       -0.0898 
     16 H8         20.4199  -14.4109   19.3327 H         1 <0>        0.0110 
     17 H9         20.6869  -13.3575   20.7911 H         1 <0>        0.0411 
     18 C6         18.7820  -13.0848   19.8088 C.3       1 <0>       -0.0906 
     19 H10        18.3793  -13.4526   18.8650 H         1 <0>        0.0737 
     20 H11        19.0887  -12.0444   19.7009 H         1 <0>        0.0208 
     21 C7         17.7308  -13.2037   20.9012 C.3       1 <0>        0.0117 
     22 H12        17.7068  -12.3251   21.5459 H         1 <0>        0.0657 
     23 C8         16.3257  -13.3590   20.3362 C.2       1 <0>        0.6809 
     24 N3         15.6633  -12.1786   20.2374 N.am      1 <0>       -0.5432 
     25 H13        16.0921  -11.3330   20.6397 H         1 <0>        0.2837 
     26 O2         15.8672  -14.4653   20.0807 O.2       1 <0>       -0.6214 
     27 C9         14.3606  -12.0652   19.5788 C.3       1 <0>        0.0856 
     28 H14        13.9874  -13.0767   19.4187 H         1 <0>        0.0811 
     29 C10        13.4509  -11.2771   20.5051 C.3       1 <0>        0.0094 
     30 H15        12.6833  -10.7787   19.9131 H         1 <0>        0.0303 
     31 H16        14.0430  -10.5356   21.0415 H         1 <0>        0.0032 
     32 C11        12.8262  -12.1926   21.4550 C.2       1 <0>       -0.2302 
     33 C12        12.4298  -13.4922   21.1793 C.cat     1 <0>        0.0344 
     34 H17        12.7027  -14.0832   20.3050 H         1 <0>        0.1333 
     35 C13        12.2898  -11.8118   22.7170 C.ar      1 <0>       -0.1870 
     36 C14        11.5169  -12.8701   23.1595 C.ar      1 <0>        0.3891 
     37 N4         11.6389  -13.8856   22.2042 N.2       1 <0>       -0.7030 
     38 C15        10.8211  -12.7519   24.3905 C.ar      1 <0>       -0.2186 
     39 H18        10.1924  -13.5743   24.7318 H         1 <0>        0.0759 
     40 C16        10.9300  -11.5799   25.1852 C.ar      1 <0>       -0.2086 
     41 H19        10.3795  -11.5083   26.1232 H         1 <0>        0.0515 
     42 C17        11.7434  -10.5117   24.7695 C.ar      1 <0>       -0.2305 
     43 H20        11.8560   -9.6146   25.3783 H         1 <0>        0.0577 
     44 C18        12.4088  -10.6475   23.5311 C.ar      1 <0>       -0.1022 
     45 H21        13.0390   -9.8288   23.1838 H         1 <0>        0.0859 
     46 C19        14.5064  -11.3382   18.2525 C.3       1 <0>        0.0971 
     47 H22        15.0664  -10.4108   18.3730 H         1 <0>       -0.0034 
     48 O3         13.1676  -11.0986   17.8687 O.3       1 <0>       -0.6472 
     49 H23        12.5897  -11.2269   18.6244 H         1 <0>        0.4015 
     50 C20        15.2614  -12.2662   17.2354 C.3       1 <0>       -0.1406 
     51 F1         14.6992  -13.4841   17.2143 F         1 <0>       -0.3186 
     52 F2         16.5021  -12.4270   17.6670 F         1 <0>       -0.3365 
     53 C21        15.4271  -11.7276   15.8406 C.3       1 <0>        0.1248 
     54 F3         15.9883  -12.6945   15.1717 F         1 <0>       -0.3636 
     55 F4         16.2039  -10.6600   15.8241 F         1 <0>       -0.3730 
     56 F5         14.2538  -11.4678   15.3701 F         1 <0>       -0.3882 
     57 C22        18.5393  -15.8555   24.7844 C.3       1 <0>        0.1511 
     58 H24        18.5044  -16.7805   25.3600 H         1 <0>       -0.0850 
     59 H25        17.9689  -15.0699   25.2800 H         1 <0>       -0.0229 
     60 C23        20.0012  -15.4003   24.7358 C.2       1 <0>       -0.5449 
     61 C24        21.0021  -16.1427   24.0363 C.2       1 <0>       -0.2145 
     62 H26        20.7442  -17.0887   23.5601 H         1 <0>        0.0042 
     63 C25        22.3326  -15.6505   23.9602 C.2       1 <0>       -0.0855 
     64 H27        23.0927  -16.2149   23.4201 H         1 <0>       -0.0210 
     65 C26        22.6675  -14.4378   24.5803 C.2       1 <0>       -0.6209 
     66 H28        23.6765  -14.0376   24.4809 H         1 <0>        0.0139 
     67 C27        21.7014  -13.7329   25.3336 C.2       1 <0>       -0.1466 
     68 H29        21.9797  -12.8200   25.8601 H         1 <0>       -0.0053 
     69 C28        20.3768  -14.2123   25.4032 C.2       1 <0>       -0.1273 
     70 H30        19.6338  -13.6600   25.9785 H         1 <0>        0.0353 
@<TRIPOS>BOND
    1     1     5 1
    2     1     2 1
    3     1     3 1
    4     1     4 1
    5     5     7 1
    6     5     6 1
    7     7     9 1
    8     7    57 1
    9     7     8 1
   10     9    10 am
   11     9    11 2
   12    10    12 1
   13    10    21 1
   14    12    15 1
   15    12    13 1
   16    12    14 1
   17    15    18 1
   18    15    16 1
   19    15    17 1
   20    18    21 1
   21    18    19 1
   22    18    20 1
   23    21    23 1
   24    21    22 1
   25    23    24 am
   26    23    26 2
   27    24    27 1
   28    24    25 1
   29    27    29 1
   30    27    46 1
   31    27    28 1
   32    29    32 1
   33    29    30 1
   34    29    31 1
   35    32    33 1
   36    32    35 2
   37    33    37 1
   38    33    34 1
   39    35    36 ar
   40    35    44 ar
   41    36    37 2
   42    36    38 ar
   43    38    40 ar
   44    38    39 1
   45    40    42 ar
   46    40    41 1
   47    42    44 ar
   48    42    43 1
   49    44    45 1
   50    46    48 1
   51    46    50 1
   52    46    47 1
   53    48    49 1
   54    50    51 1
   55    50    52 1
   56    50    53 1
   57    53    54 1
   58    53    55 1
   59    53    56 1
   60    57    60 1
   61    57    58 1
   62    57    59 1
   63    60    61 1
   64    60    69 1
   65    61    63 1
   66    61    62 1
   67    63    65 1
   68    63    64 1
   69    65    67 1
   70    65    66 1
   71    67    69 1
   72    67    68 1
   73    69    70 1
@<TRIPOS>SUBSTRUCTURE
