# Ligand [name]_[conformer]_[binding mode]: 1dwc_ligand_xtal_0001
# SLIDE Version: 3.3.5
# Time stamp: Tue Jul  7 15:44:37 2009
# Affiscore (kcal/mol), for ranking ligand candidates: -8.976
# Ligand Efficiency ((Affinity Score - Constant Term) / # non-H atoms): -0.107
# ===========================================================================
# Weighted term values
# hydrophobic complementarity term (kcal/mol)       : -4.166 
# polar term (kcal/mol)                             : -0.664 
# unsatisfied polar term (kcal/mol)                 : 1.072 
# constant term (kcal/mol)                          : -5.218 
# ===========================================================================
# protein-ligand hydrophobic contacts         : 85
# protein-ligand H-bond count                 : 6
# protein-ligand salt-bridge count            : 2
# metal-ligand interactions count             : 0
# unsatisfied interfacial polar atom count    : 7
# unsatisfied interfacial charged atom count  : 1
# buried carbons (x 100%)          : 0.913
# remaining vdW collisions         : 3
# total vdW overlap (A)            : 0.413
# anchor fragment translations     : 1
# side-chain mean-field iterations : 10
# ligand side-chain rotations      : 0
# protein side-chain rotations     : 17
# Orientscore (kcal/mol), used by SLIDE to select binding mode: -9.059
# ===========================================================================
# Anchor fragment atoms matched to template:
# ligand hydrophobic center  0 to template point  6 H
# ligand atom   26  O1   O.2   to template point 10 A
# ligand atom   42  N5   N.pl3 to template point 16 D
# ===========================================================================
#          |Ligand Atom -- Protein Atom|
#          |   #  type  -- RES   # type|
# hbond   1:  21  N.pl3 -- GLY  216  O   (dist: 3.366, D-H-A angle: 154.3)
# hbond   2:  26  O.2   -- GLY  216  N   (dist: 3.268, D-H-A angle: 157.3)
# hbond   3:  36  N.pl3 -- GLY  219  O   (dist: 2.710, D-H-A angle: 135.7)
# hbond   4:  42  N.pl3 -- ALA  190  O   (dist: 3.003, D-H-A angle: 137.7)
# hbond   5:  42  N.pl3 -- GLY  219  O   (dist: 2.907, D-H-A angle: 136.5)
# hbond   6:  67  O.3   -- SER  195  OG  (dist: 3.270, D-H-A angle: 164.9)
# salt bridge   1 :  42  N.pl3 -- ASP  189  OD1 (dist: 3.621)
# salt bridge   2 :  42  N.pl3 -- ASP  189  OD2 (dist: 3.034)
# ===========================================================================
@<TRIPOS>MOLECULE
1dwc_ligand_xtal
   72    74     0     0     0
SMALL
USER_CHARGES
@<TRIPOS>ATOM
      1 C1         18.4644  -16.9157   22.2276 C.ar      1 <0>       -0.4908 
      2 C2         19.0693  -16.8413   21.0062 C.ar      1 <0>       -0.0143 
      3 H1         18.5865  -17.2741   20.1300 H         1 <0>        0.1599 
      4 C3         20.3137  -16.2064   20.8816 C.ar      1 <0>       -0.1945 
      5 H2         20.8063  -16.1821   19.9096 H         1 <0>        0.1426 
      6 C4         20.9347  -15.6041   21.9801 C.ar      1 <0>       -0.0294 
      7 H3         21.9231  -15.1545   21.8856 H         1 <0>        0.1398 
      8 C5         20.2607  -15.5930   23.1952 C.ar      1 <0>       -0.1552 
      9 C6         20.8813  -15.0144   24.3896 C.3       1 <0>       -0.0319 
     10 H4         21.5394  -14.1983   24.0913 H         1 <0>        0.0574 
     11 H5         21.4579  -15.7844   24.9021 H         1 <0>        0.0629 
     12 C7         19.8186  -14.4992   25.2906 C.3       1 <0>       -0.0746 
     13 H6         19.2743  -13.6940   24.7972 H         1 <0>        0.0639 
     14 C8         18.8740  -15.5888   25.6267 C.3       1 <0>        0.2023 
     15 H7         18.0373  -15.2510   26.2381 H         1 <0>        0.0556 
     16 H8         19.3427  -16.3991   26.1851 H         1 <0>        0.0415 
     17 N1         18.2898  -16.1994   24.4659 N.pl3     1 <0>       -0.7670 
     18 H9         17.3476  -16.6134   24.5063 H         1 <0>        0.4531 
     19 C9         18.9828  -16.2180   23.3543 C.ar      1 <0>        0.3076 
     20 S1         16.8145  -17.5722   22.3186 S.o2      1 <0>        1.5193 
     21 N2         15.6536  -16.3469   22.1575 N.pl3     1 <0>       -0.8860 
     22 H10        15.6252  -15.8562   23.0627 H         1 <0>        0.4505 
     23 C10        15.7668  -15.2838   21.1617 C.3       1 <0>        0.1952 
     24 H11        16.2361  -15.6582   20.2520 H         1 <0>        0.0839 
     25 C11        16.6071  -14.1406   21.6946 C.2       1 <0>        0.6462 
     26 O1         16.5250  -13.7327   22.8340 O.2       1 <0>       -0.6131 
     27 C12        14.4110  -14.7663   20.7621 C.3       1 <0>       -0.0916 
     28 H12        13.9762  -15.3936   19.9838 H         1 <0>        0.0740 
     29 H13        14.4873  -13.7483   20.3801 H         1 <0>        0.0631 
     30 C13        13.4862  -14.7612   21.9333 C.3       1 <0>       -0.1192 
     31 H14        14.0067  -14.2544   22.7460 H         1 <0>        0.0800 
     32 H15        13.2733  -15.8028   22.1737 H         1 <0>        0.0681 
     33 C14        12.2244  -14.0041   21.5019 C.3       1 <0>        0.1883 
     34 H16        11.7513  -14.4886   20.6478 H         1 <0>        0.0970 
     35 H17        12.4622  -12.9794   21.2167 H         1 <0>        0.0725 
     36 N3         11.2461  -13.9532   22.5894 N.pl3     1 <0>       -0.7419 
     37 H18        10.7354  -14.8015   22.8731 H         1 <0>        0.4689 
     38 C15        11.0237  -12.7820   23.2131 C.cat     1 <0>        0.6305 
     39 N4         11.7410  -11.6904   22.8375 N.pl3     1 <0>       -0.8477 
     40 H19        11.5841  -10.7856   23.3040 H         1 <0>        0.4798 
     41 H20        12.4416  -11.7680   22.0865 H         1 <0>        0.4881 
     42 N5         10.2067  -12.7568   24.2851 N.pl3     1 <0>       -0.8633 
     43 H21         9.6747  -13.5990   24.5471 H         1 <0>        0.4801 
     44 H22        10.1145  -11.8953   24.8422 H         1 <0>        0.4806 
     45 C16        20.4362  -13.9677   26.5693 C.3       1 <0>       -0.0944 
     46 H23        19.6501  -13.5919   27.2242 H         1 <0>        0.0401 
     47 H24        20.9760  -14.7694   27.0733 H         1 <0>        0.0440 
     48 H25        21.1272  -13.1591   26.3309 H         1 <0>        0.0459 
     49 O2         16.6196  -18.1247   23.6336 O.2       1 <0>       -0.6576 
     50 O3         16.8157  -18.3639   21.1037 O.2       1 <0>       -0.6482 
     51 N6         17.3142  -13.4410   20.7525 N.am      1 <0>       -0.4509 
     52 C17        17.1948  -13.7642   19.3364 C.3       1 <0>        0.0778 
     53 H26        16.7023  -14.7276   19.2048 H         1 <0>        0.0851 
     54 C18        18.5768  -13.8350   18.6846 C.3       1 <0>       -0.0841 
     55 H27        18.4615  -13.9387   17.6057 H         1 <0>        0.0841 
     56 H28        19.1179  -14.6949   19.0795 H         1 <0>        0.0679 
     57 C19        19.3296  -12.5869   18.9896 C.3       1 <0>       -0.0681 
     58 H29        18.8486  -11.7212   18.5345 H         1 <0>        0.0584 
     59 C20        19.4017  -12.3494   20.4888 C.3       1 <0>       -0.0918 
     60 H30        19.8940  -11.3923   20.6615 H         1 <0>        0.0614 
     61 H31        19.9743  -13.1609   20.9379 H         1 <0>        0.0593 
     62 C21        18.0710  -12.3045   21.1622 C.3       1 <0>        0.0870 
     63 H32        18.1940  -12.3394   22.2447 H         1 <0>        0.0826 
     64 H33        17.5310  -11.4031   20.8722 H         1 <0>        0.0383 
     65 C22        16.2449  -12.8007   18.6271 C.2       1 <0>        0.5994 
     66 O4         16.3031  -12.8440   17.4034 O.2       1 <0>       -0.5199 
     67 O5         15.2054  -12.5313   19.1816 O.3       1 <0>       -0.6303 
     68 H34        15.0821  -11.5793   19.1862 H         1 <0>        0.4443 
     69 C23        20.7203  -12.7447   18.4130 C.3       1 <0>       -0.0918 
     70 H35        21.3032  -11.8466   18.6176 H         1 <0>        0.0456 
     71 H36        21.2082  -13.6057   18.8699 H         1 <0>        0.0366 
     72 H37        20.6525  -12.8955   17.3356 H         1 <0>        0.0474 
@<TRIPOS>BOND
    1     1     2 ar
    2     1    19 ar
    3     1    20 1
    4     2     4 ar
    5     2     3 1
    6     4     6 ar
    7     4     5 1
    8     6     8 ar
    9     6     7 1
   10     8     9 1
   11     8    19 ar
   12     9    12 1
   13     9    10 1
   14     9    11 1
   15    12    14 1
   16    12    45 1
   17    12    13 1
   18    14    17 1
   19    14    15 1
   20    14    16 1
   21    17    19 1
   22    17    18 1
   23    20    21 1
   24    20    49 2
   25    20    50 2
   26    21    23 1
   27    21    22 1
   28    23    25 1
   29    23    27 1
   30    23    24 1
   31    25    26 2
   32    25    51 am
   33    27    30 1
   34    27    28 1
   35    27    29 1
   36    30    33 1
   37    30    31 1
   38    30    32 1
   39    33    36 1
   40    33    34 1
   41    33    35 1
   42    36    38 1
   43    36    37 1
   44    38    39 1
   45    38    42 1
   46    39    40 1
   47    39    41 1
   48    42    43 1
   49    42    44 1
   50    45    46 1
   51    45    47 1
   52    45    48 1
   53    51    52 1
   54    51    62 1
   55    52    54 1
   56    52    65 1
   57    52    53 1
   58    54    57 1
   59    54    55 1
   60    54    56 1
   61    57    59 1
   62    57    69 1
   63    57    58 1
   64    59    62 1
   65    59    60 1
   66    59    61 1
   67    62    63 1
   68    62    64 1
   69    65    66 2
   70    65    67 1
   71    67    68 1
   72    69    70 1
   73    69    71 1
   74    69    72 1
@<TRIPOS>SUBSTRUCTURE
