# Ligand [name]_[conformer]_[binding mode]: ZINC00538219_0002
# SLIDE Version: 3.3.5
# Time stamp: Tue Jul  7 15:44:37 2009
# Affiscore (kcal/mol), for ranking ligand candidates: -7.808
# Ligand Efficiency ((Affinity Score - Constant Term) / # non-H atoms): -0.096
# ===========================================================================
# Weighted term values
# hydrophobic complementarity term (kcal/mol)       : -3.445 
# polar term (kcal/mol)                             : -0.083 
# unsatisfied polar term (kcal/mol)                 : 0.938 
# constant term (kcal/mol)                          : -5.218 
# ===========================================================================
# protein-ligand hydrophobic contacts         : 50
# protein-ligand H-bond count                 : 1
# protein-ligand salt-bridge count            : 0
# metal-ligand interactions count             : 0
# unsatisfied interfacial polar atom count    : 7
# unsatisfied interfacial charged atom count  : 0
# buried carbons (x 100%)          : 0.739
# remaining vdW collisions         : 0
# total vdW overlap (A)            : 0.000
# anchor fragment translations     : 1
# side-chain mean-field iterations : 2
# ligand side-chain rotations      : 0
# protein side-chain rotations     : 3
# Orientscore (kcal/mol), used by SLIDE to select binding mode: -6.298
# ===========================================================================
# Anchor fragment atoms matched to template:
# ligand hydrophobic center  0 to template point  6 H
# ligand hydrophobic center  7 to template point  7 H
# ligand atom    3  O1   O.2   to template point 13 A
# ===========================================================================
#          |Ligand Atom -- Protein Atom|
#          |   #  type  -- RES   # type|
# hbond   1:   3  O.2   -- HIS   57  NE2 (dist: 2.792, D-H-A angle: 129.6)
# ===========================================================================
@<TRIPOS>MOLECULE
ZINC00538219
   61    64     0     0     0
SMALL
USER_CHARGES
@<TRIPOS>ATOM
      1 C1         14.3633  -11.3458   17.8158 C.3       1 <0>       -0.1486 
      2 C2         15.8127  -11.7266   17.8317 C.2       1 <0>        0.6441 
      3 O1         16.6991  -11.0705   17.3025 O.2       1 <0>       -0.5360 
      4 O2         15.9692  -12.8929   18.5202 O.3       1 <0>       -0.4351 
      5 C3         17.3043  -13.4009   18.6394 C.3       1 <0>        0.0407 
      6 C4         17.9814  -12.8338   19.8780 C.2       1 <0>        0.5542 
      7 O3         17.4688  -11.8946   20.4978 O.2       1 <0>       -0.5199 
      8 C5         19.3061  -13.4229   20.3909 C.3       1 <0>       -0.1600 
      9 C6         20.0848  -14.2432   19.3161 C.3       1 <0>       -0.0783 
     10 C7         19.9731  -15.7390   19.6926 C.3       1 <0>       -0.0760 
     11 C8         18.9055  -15.7695   20.7821 C.3       1 <0>       -0.0658 
     12 C9         19.0983  -14.4489   21.5214 C.3       1 <0>       -0.0348 
     13 C10        17.8557  -14.2428   22.4099 C.3       1 <0>       -0.0700 
     14 C11        17.6652  -15.4088   23.3989 C.3       1 <0>       -0.0738 
     15 C12        17.6835  -16.8092   22.7118 C.3       1 <0>       -0.0483 
     16 C13        18.8715  -16.9752   21.7338 C.3       1 <0>       -0.0464 
     17 C14        18.7084  -18.2868   20.9415 C.3       1 <0>       -0.0458 
     18 C15        18.3082  -19.4447   21.7966 C.2       1 <0>       -0.1643 
     19 C16        17.8641  -19.3392   23.0612 C.2       1 <0>       -0.1152 
     20 C17        17.6766  -17.9917   23.7703 C.3       1 <0>       -0.0019 
     21 C18        16.2916  -17.9749   24.4838 C.3       1 <0>       -0.0725 
     22 C19        16.0015  -19.2177   25.3295 C.3       1 <0>       -0.1101 
     23 C20        16.1666  -20.5188   24.5404 C.3       1 <0>        0.1457 
     24 C21        17.5263  -20.5920   23.8462 C.3       1 <0>       -0.0786 
     25 O4         15.1349  -20.6192   23.5672 O.3       1 <0>       -0.5968 
     26 C22        18.7966  -17.8387   24.8288 C.3       1 <0>       -0.0828 
     27 C23        20.3597  -14.4153   22.4302 C.3       1 <0>       -0.0861 
     28 H1         15.2833  -19.9436   22.8846 H         1 <0>        0.4014 
     29 H2         14.2393  -10.4142   17.2564 H         1 <0>        0.0768 
     30 H3         13.7797  -12.1274   17.3230 H         1 <0>        0.0745 
     31 H4         14.0106  -11.1878   18.8381 H         1 <0>        0.0833 
     32 H5         17.2169  -14.4843   18.7223 H         1 <0>        0.0894 
     33 H6         17.8868  -13.1596   17.7456 H         1 <0>        0.0882 
     34 H7         19.9515  -12.5684   20.6584 H         1 <0>        0.0847 
     35 H8         19.7507  -14.0708   18.2913 H         1 <0>        0.0457 
     36 H9         21.1448  -13.9602   19.3382 H         1 <0>        0.0499 
     37 H10        19.6934  -16.3460   18.8254 H         1 <0>        0.0442 
     38 H11        20.9355  -16.1104   20.0623 H         1 <0>        0.0492 
     39 H12        17.9444  -15.8124   20.2409 H         1 <0>        0.0436 
     40 H13        17.9285  -13.3004   22.9659 H         1 <0>        0.0579 
     41 H14        16.9449  -14.1837   21.8015 H         1 <0>        0.0463 
     42 H15        18.4356  -15.3328   24.1698 H         1 <0>        0.0448 
     43 H16        16.7076  -15.2621   23.9116 H         1 <0>        0.0428 
     44 H17        16.7485  -16.8232   22.1168 H         1 <0>        0.0471 
     45 H18        19.8310  -17.0662   22.2639 H         1 <0>        0.0599 
     46 H19        17.9546  -18.1728   20.1525 H         1 <0>        0.0494 
     47 H20        19.6557  -18.5260   20.4434 H         1 <0>        0.0491 
     48 H21        18.4038  -20.4263   21.3383 H         1 <0>        0.1232 
     49 H22        16.2099  -17.0973   25.1366 H         1 <0>        0.0469 
     50 H23        15.4924  -17.8724   23.7377 H         1 <0>        0.0411 
     51 H24        16.6662  -19.2311   26.2012 H         1 <0>        0.0479 
     52 H25        14.9750  -19.1461   25.7090 H         1 <0>        0.0569 
     53 H26        16.0761  -21.3497   25.2570 H         1 <0>        0.0719 
     54 H27        17.5409  -21.4714   23.1898 H         1 <0>        0.0584 
     55 H28        18.3075  -20.7502   24.5993 H         1 <0>        0.0575 
     56 H29        18.8692  -18.7142   25.4829 H         1 <0>        0.0367 
     57 H30        19.7810  -17.7103   24.3684 H         1 <0>        0.0386 
     58 H31        18.6192  -16.9850   25.4905 H         1 <0>        0.0366 
     59 H32        20.3636  -15.1807   23.2093 H         1 <0>        0.0425 
     60 H33        21.2816  -14.5484   21.8541 H         1 <0>        0.0358 
     61 H34        20.4355  -13.4441   22.9339 H         1 <0>        0.0404 
@<TRIPOS>BOND
    1     1     2 1
    2     1    29 1
    3     1    30 1
    4     1    31 1
    5     2     3 2
    6     2     4 1
    7     4     5 1
    8     5     6 1
    9     5    32 1
   10     5    33 1
   11     6     7 2
   12     6     8 1
   13     8    12 1
   14     8     9 1
   15     8    34 1
   16     9    10 1
   17     9    35 1
   18     9    36 1
   19    10    11 1
   20    10    37 1
   21    10    38 1
   22    11    16 1
   23    11    12 1
   24    11    39 1
   25    12    13 1
   26    12    27 1
   27    13    14 1
   28    13    40 1
   29    13    41 1
   30    14    15 1
   31    14    42 1
   32    14    43 1
   33    15    20 1
   34    15    16 1
   35    15    44 1
   36    16    17 1
   37    16    45 1
   38    17    18 1
   39    17    46 1
   40    17    47 1
   41    18    19 2
   42    18    48 1
   43    19    24 1
   44    19    20 1
   45    20    21 1
   46    20    26 1
   47    21    22 1
   48    21    49 1
   49    21    50 1
   50    22    23 1
   51    22    51 1
   52    22    52 1
   53    23    24 1
   54    23    25 1
   55    23    53 1
   56    24    54 1
   57    24    55 1
   58    25    28 1
   59    26    56 1
   60    26    57 1
   61    26    58 1
   62    27    59 1
   63    27    60 1
   64    27    61 1
@<TRIPOS>SUBSTRUCTURE
