# Ligand [name]_[conformer]_[binding mode]: ZINC00092235_0002
# SLIDE Version: 3.3.5
# Time stamp: Tue Jul  7 15:44:37 2009
# Affiscore (kcal/mol), for ranking ligand candidates: -7.355
# Ligand Efficiency ((Affinity Score - Constant Term) / # non-H atoms): -0.082
# ===========================================================================
# Weighted term values
# hydrophobic complementarity term (kcal/mol)       : -3.477 
# polar term (kcal/mol)                             : -0.000 
# unsatisfied polar term (kcal/mol)                 : 1.340 
# constant term (kcal/mol)                          : -5.218 
# ===========================================================================
# protein-ligand hydrophobic contacts         : 34
# protein-ligand H-bond count                 : 0
# protein-ligand salt-bridge count            : 0
# metal-ligand interactions count             : 0
# unsatisfied interfacial polar atom count    : 7
# unsatisfied interfacial charged atom count  : 3
# buried carbons (x 100%)          : 0.909
# remaining vdW collisions         : 3
# total vdW overlap (A)            : 1.168
# anchor fragment translations     : 0
# side-chain mean-field iterations : 3
# ligand side-chain rotations      : 0
# protein side-chain rotations     : 3
# Orientscore (kcal/mol), used by SLIDE to select binding mode: -5.279
# ===========================================================================
# Anchor fragment atoms matched to template:
# ligand hydrophobic center  0 to template point  4 H
# ligand hydrophobic center  0 to template point  6 H
# ligand atom   18  N2   N.pl3 to template point 17 D
# ===========================================================================
#          |Ligand Atom -- Protein Atom|
#          |   #  type  -- RES   # type|
# ===========================================================================
@<TRIPOS>MOLECULE
ZINC00092235
   52    56     0     0     0
SMALL
USER_CHARGES
@<TRIPOS>ATOM
      1 C1         21.7118  -15.3655   22.3437 C.ar      1 <0>       -0.0978 
      2 C2         22.5240  -16.4806   22.1540 C.ar      1 <0>       -0.0943 
      3 C3         21.9720  -17.7563   22.0118 C.ar      1 <0>       -0.1009 
      4 C4         20.5781  -17.8705   22.0665 C.ar      1 <0>        0.0626 
      5 C5         19.7355  -16.7731   22.2555 C.ar      1 <0>       -0.0700 
      6 C6         20.3193  -15.4958   22.3964 C.ar      1 <0>       -0.1265 
      7 C7         18.3881  -17.2621   22.2531 C.2       1 <0>       -0.3121 
      8 C8         18.4607  -18.6296   22.0703 C.2       1 <0>        0.0849 
      9 N1         19.7776  -18.9831   21.9597 N.pl3     1 <0>       -0.5192 
     10 C9         17.1407  -16.4645   22.4184 C.3       1 <0>        0.2470 
     11 C10        14.9491  -15.7559   21.4349 C.3       1 <0>        0.0793 
     12 C11        14.1279  -15.7002   20.1548 C.3       1 <0>        0.0735 
     13 C12        16.2197  -15.3830   18.8261 C.3       1 <0>        0.0792 
     14 C13        17.0420  -15.4443   20.1067 C.3       1 <0>        0.0777 
     15 C14        13.9856  -14.6837   17.8703 C.3       1 <0>        0.2493 
     16 C15        14.4671  -13.6264   16.9379 C.2       1 <0>       -0.3108 
     17 C16        14.3710  -12.2623   17.1357 C.2       1 <0>        0.0824 
     18 N2         14.9255  -11.6276   16.0580 N.pl3     1 <0>       -0.5179 
     19 C17        15.3873  -12.5506   15.1499 C.ar      1 <0>        0.0622 
     20 C18        15.1110  -13.8161   15.6712 C.ar      1 <0>       -0.0695 
     21 C19        15.4897  -14.9488   14.9192 C.ar      1 <0>       -0.1261 
     22 C20        16.1251  -14.7743   13.6844 C.ar      1 <0>       -0.0984 
     23 C21        16.3862  -13.4980   13.1927 C.ar      1 <0>       -0.0957 
     24 C22        16.0216  -12.3601   13.9168 C.ar      1 <0>       -0.1004 
     25 H1         20.1162  -19.9256   21.8213 H         1 <0>        0.4881 
     26 H2         14.9864  -10.6251   15.9428 H         1 <0>        0.4882 
     27 H3         22.1632  -14.3828   22.4528 H         1 <0>        0.1593 
     28 H4         23.6036  -16.3584   22.1166 H         1 <0>        0.1682 
     29 H5         22.6062  -18.6244   21.8650 H         1 <0>        0.1640 
     30 H6         19.7030  -14.6137   22.5453 H         1 <0>        0.1247 
     31 H7         17.6875  -19.3837   22.0112 H         1 <0>        0.1783 
     32 H8         17.3431  -15.4593   22.8041 H         1 <0>        0.1105 
     33 H9         16.4858  -16.9744   23.1354 H         1 <0>        0.1015 
     34 H10        14.4802  -16.4329   22.1564 H         1 <0>        0.1444 
     35 H11        15.0698  -14.7650   21.8870 H         1 <0>        0.1211 
     36 H12        13.9828  -16.6949   19.7182 H         1 <0>        0.1217 
     37 H13        13.1538  -15.2401   20.3495 H         1 <0>        0.1444 
     38 H14        16.1011  -16.3722   18.3697 H         1 <0>        0.1176 
     39 H15        16.6971  -14.7050   18.1132 H         1 <0>        0.1624 
     40 H16        17.1922  -14.4504   20.5432 H         1 <0>        0.1184 
     41 H17        18.0123  -15.9048   19.9006 H         1 <0>        0.1625 
     42 H18        13.9355  -15.6661   17.3879 H         1 <0>        0.1098 
     43 H19        12.9757  -14.4239   18.2103 H         1 <0>        0.1013 
     44 H20        13.9531  -11.6873   17.9509 H         1 <0>        0.1787 
     45 H21        15.2949  -15.9527   15.2853 H         1 <0>        0.1259 
     46 H22        16.4171  -15.6454   13.1034 H         1 <0>        0.1589 
     47 H23        16.8803  -13.3836   12.2309 H         1 <0>        0.1676 
     48 H24        16.2249  -11.3661   13.5319 H         1 <0>        0.1649 
     49 N3         16.3321  -16.2951   21.1389 N.4       1 <0>       -0.7137 
     50 H25        16.2181  -17.2393   20.7441 H         1 <0>        0.4431 
     51 N4         14.8350  -14.8470   19.1237 N.4       1 <0>       -0.7135 
     52 H26        14.9418  -13.9039   19.5233 H         1 <0>        0.4430 
@<TRIPOS>BOND
    1     1     6 ar
    2     1     2 ar
    3     1    27 1
    4     2     3 ar
    5     2    28 1
    6     3     4 ar
    7     3    29 1
    8     4     9 1
    9     4     5 ar
   10     5     6 ar
   11     5     7 1
   12     6    30 1
   13     7     8 2
   14     7    10 1
   15     8     9 1
   16     8    31 1
   17     9    25 1
   18    10    32 1
   19    10    33 1
   20    10    49 1
   21    11    12 1
   22    11    34 1
   23    11    35 1
   24    11    49 1
   25    12    36 1
   26    12    37 1
   27    12    51 1
   28    13    14 1
   29    13    38 1
   30    13    39 1
   31    13    51 1
   32    14    40 1
   33    14    41 1
   34    14    49 1
   35    15    16 1
   36    15    42 1
   37    15    43 1
   38    15    51 1
   39    16    20 1
   40    16    17 2
   41    17    18 1
   42    17    44 1
   43    18    19 1
   44    18    26 1
   45    19    24 ar
   46    19    20 ar
   47    20    21 ar
   48    21    22 ar
   49    21    45 1
   50    22    23 ar
   51    22    46 1
   52    23    24 ar
   53    23    47 1
   54    24    48 1
   55    49    50 1
   56    51    52 1
@<TRIPOS>SUBSTRUCTURE
