# Ligand [name]_[conformer]_[binding mode]: ZINC00171204_0002
# SLIDE Version: 3.3.5
# Time stamp: Tue Jul  7 15:44:37 2009
# Affiscore (kcal/mol), for ranking ligand candidates: -7.671
# Ligand Efficiency ((Affinity Score - Constant Term) / # non-H atoms): -0.117
# ===========================================================================
# Weighted term values
# hydrophobic complementarity term (kcal/mol)       : -3.844 
# polar term (kcal/mol)                             : -0.083 
# unsatisfied polar term (kcal/mol)                 : 1.474 
# constant term (kcal/mol)                          : -5.218 
# ===========================================================================
# protein-ligand hydrophobic contacts         : 68
# protein-ligand H-bond count                 : 1
# protein-ligand salt-bridge count            : 0
# metal-ligand interactions count             : 0
# unsatisfied interfacial polar atom count    : 11
# unsatisfied interfacial charged atom count  : 0
# buried carbons (x 100%)          : 1.000
# remaining vdW collisions         : 4
# total vdW overlap (A)            : 1.532
# anchor fragment translations     : 1
# side-chain mean-field iterations : 4
# ligand side-chain rotations      : 0
# protein side-chain rotations     : 6
# Orientscore (kcal/mol), used by SLIDE to select binding mode: -6.997
# ===========================================================================
# Anchor fragment atoms matched to template:
# ligand hydrophobic center  0 to template point  7 H
# ligand hydrophobic center  0 to template point  8 H
# ligand atom   21  O2   O.3   to template point 19 D
# ===========================================================================
#          |Ligand Atom -- Protein Atom|
#          |   #  type  -- RES   # type|
# hbond   1:  21  O.3   -- ASP  189  OD1 (dist: 3.079, D-H-A angle: 148.8)
# ===========================================================================
@<TRIPOS>MOLECULE
ZINC00171204
   35    37     0     0     0
SMALL
USER_CHARGES
@<TRIPOS>ATOM
      1 C1         19.9134  -14.0274   19.5765 C.ar      1 <0>       -0.1284 
      2 C2         19.1271  -14.4190   18.4983 C.ar      1 <0>       -0.1217 
      3 C3         17.8875  -13.8110   18.2724 C.ar      1 <0>       -0.1187 
      4 C4         17.4136  -12.7964   19.1168 C.ar      1 <0>        0.0468 
      5 C5         18.2163  -12.4270   20.2093 C.ar      1 <0>       -0.1256 
      6 C6         19.4566  -13.0326   20.4337 C.ar      1 <0>       -0.1222 
      7 N1         16.1460  -12.1733   18.9060 N.am      1 <0>       -0.3891 
      8 C7         15.3263  -11.7650   19.9599 C.2       1 <0>        0.6925 
      9 O1         15.5179  -11.8574   21.1652 O.2       1 <0>       -0.5506 
     10 C8         14.0509  -11.1935   19.3552 C.3       1 <0>        0.0229 
     11 N2         14.2940  -11.3055   17.9587 N.pl3     1 <0>       -0.5503 
     12 C9         15.5391  -11.8696   17.6863 C.2       1 <0>        0.5548 
     13 S1         16.0810  -11.9848   16.1132 S.2       1 <0>       -0.4561 
     14 C10        12.8094  -12.0023   19.7626 C.3       1 <0>       -0.0301 
     15 C11        12.3201  -11.7009   21.1588 C.ar      1 <0>       -0.1329 
     16 C12        11.6588  -10.4948   21.4338 C.ar      1 <0>       -0.0908 
     17 C13        11.2081  -10.2118   22.7237 C.ar      1 <0>       -0.1555 
     18 C14        11.4171  -11.1354   23.7432 C.ar      1 <0>        0.1332 
     19 C15        12.0700  -12.3391   23.4904 C.ar      1 <0>       -0.2092 
     20 C16        12.5192  -12.6201   22.1989 C.ar      1 <0>       -0.0628 
     21 O2         10.9647  -10.8283   24.9951 O.3       1 <0>       -0.4955 
     22 H1         13.6748  -10.9533   17.2355 H         1 <0>        0.3613 
     23 H2         10.0064  -10.7724   24.9848 H         1 <0>        0.4215 
     24 H3         20.8754  -14.5000   19.7513 H         1 <0>        0.1358 
     25 H4         19.4703  -15.2086   17.8354 H         1 <0>        0.1374 
     26 H5         17.2880  -14.1946   17.4529 H         1 <0>        0.1602 
     27 H6         17.9148  -11.6335   20.8881 H         1 <0>        0.1522 
     28 H7         20.0658  -12.7209   21.2777 H         1 <0>        0.1364 
     29 H8         13.9357  -10.1453   19.6633 H         1 <0>        0.0981 
     30 H9         11.9849  -11.7941   19.0668 H         1 <0>        0.0615 
     31 H10        13.0085  -13.0781   19.6644 H         1 <0>        0.0645 
     32 H11        11.4900   -9.7684   20.6425 H         1 <0>        0.1303 
     33 H12        10.6976   -9.2744   22.9251 H         1 <0>        0.1528 
     34 H13        12.2362  -13.0625   24.2831 H         1 <0>        0.1382 
     35 H14        13.0318  -13.5605   22.0107 H         1 <0>        0.1390 
@<TRIPOS>BOND
    1     1     6 ar
    2     1     2 ar
    3     1    24 1
    4     2     3 ar
    5     2    25 1
    6     3     4 ar
    7     3    26 1
    8     4     5 ar
    9     4     7 1
   10     5     6 ar
   11     5    27 1
   12     6    28 1
   13     7    12 1
   14     7     8 am
   15     8     9 2
   16     8    10 1
   17    10    11 1
   18    10    14 1
   19    10    29 1
   20    11    12 1
   21    11    22 1
   22    12    13 2
   23    14    15 1
   24    14    30 1
   25    14    31 1
   26    15    20 ar
   27    15    16 ar
   28    16    17 ar
   29    16    32 1
   30    17    18 ar
   31    17    33 1
   32    18    19 ar
   33    18    21 1
   34    19    20 ar
   35    19    34 1
   36    20    35 1
   37    21    23 1
@<TRIPOS>SUBSTRUCTURE
