# Ligand [name]_[conformer]_[binding mode]: ZINC00000199_0004
# SLIDE Version: 3.3.5
# Time stamp: Tue Jul  7 15:44:35 2009
# Affiscore (kcal/mol), for ranking ligand candidates: -7.933
# Ligand Efficiency ((Affinity Score - Constant Term) / # non-H atoms): -0.129
# ===========================================================================
# Weighted term values
# hydrophobic complementarity term (kcal/mol)       : -3.921 
# polar term (kcal/mol)                             : -0.000 
# unsatisfied polar term (kcal/mol)                 : 1.206 
# constant term (kcal/mol)                          : -5.218 
# ===========================================================================
# protein-ligand hydrophobic contacts         : 74
# protein-ligand H-bond count                 : 0
# protein-ligand salt-bridge count            : 0
# metal-ligand interactions count             : 0
# unsatisfied interfacial polar atom count    : 8
# unsatisfied interfacial charged atom count  : 1
# buried carbons (x 100%)          : 0.947
# remaining vdW collisions         : 3
# total vdW overlap (A)            : 0.449
# anchor fragment translations     : 1
# side-chain mean-field iterations : 10
# ligand side-chain rotations      : 1
# protein side-chain rotations     : 12
# Orientscore (kcal/mol), used by SLIDE to select binding mode: -6.847
# ===========================================================================
# Anchor fragment atoms matched to template:
# ligand hydrophobic center  0 to template point  6 H
# ligand hydrophobic center  0 to template point  7 H
# ligand hydrophobic center  0 to template point  8 H
# ===========================================================================
#          |Ligand Atom -- Protein Atom|
#          |   #  type  -- RES   # type|
# ===========================================================================
@<TRIPOS>MOLECULE
ZINC00000199
   51    53     0     0     0
SMALL
USER_CHARGES
@<TRIPOS>ATOM
      1 C1         19.5743  -13.0112   17.4097 C.ar      1 <0>       -0.1027 
      2 C2         18.2416  -12.8653   17.7793 C.ar      1 <0>       -0.1261 
      3 C3         17.8660  -12.9446   19.1256 C.ar      1 <0>       -0.1321 
      4 C4         18.8132  -13.1827   20.1332 C.ar      1 <0>       -0.1429 
      5 C5         20.1611  -13.3086   19.7306 C.ar      1 <0>       -0.1118 
      6 C6         20.5367  -13.2294   18.3874 C.ar      1 <0>       -0.1157 
      7 C7         18.4794  -13.2758   21.6468 C.3       1 <0>        0.2373 
      8 C8         17.0083  -12.8512   21.9683 C.3       1 <0>       -0.1302 
      9 C9         15.8686  -13.8140   21.6363 C.3       1 <0>        0.1162 
     10 C10        13.4657  -14.2196   22.2236 C.3       1 <0>        0.1124 
     11 C11        12.1748  -13.5452   22.6647 C.3       1 <0>       -0.1069 
     12 C12        11.6923  -12.5246   21.6417 C.3       1 <0>       -0.0985 
     13 C13        12.7858  -11.5140   21.3188 C.3       1 <0>       -0.1072 
     14 C14        14.0727  -12.1977   20.8797 C.3       1 <0>        0.1080 
     15 C15        18.8755  -14.7083   22.1394 C.3       1 <0>       -0.0763 
     16 C16        18.5427  -15.0217   23.6140 C.3       1 <0>       -0.0747 
     17 C17        18.1555  -16.5003   23.6572 C.3       1 <0>       -0.0843 
     18 C18        18.6028  -17.0780   22.3248 C.3       1 <0>       -0.0863 
     19 C19        18.3887  -15.9299   21.3493 C.3       1 <0>       -0.0743 
     20 O1         19.3110  -12.3423   22.3430 O.3       1 <0>       -0.5975 
     21 H1         19.3242  -11.5103   21.8390 H         1 <0>        0.4175 
     22 H2         19.8616  -12.9476   16.3645 H         1 <0>        0.1531 
     23 H3         17.4871  -12.6832   17.0186 H         1 <0>        0.1386 
     24 H4         16.8149  -12.8023   19.3463 H         1 <0>        0.1004 
     25 H5         20.9427  -13.4679   20.4708 H         1 <0>        0.1517 
     26 H6         21.5815  -13.3351   18.1094 H         1 <0>        0.1516 
     27 H7         16.8306  -11.8652   21.5207 H         1 <0>        0.0579 
     28 H8         16.9509  -12.6402   23.0465 H         1 <0>        0.0811 
     29 H9         15.9344  -14.6983   22.2748 H         1 <0>        0.1137 
     30 H10        15.8338  -14.1293   20.5911 H         1 <0>        0.1072 
     31 H11        13.3335  -14.8010   21.3043 H         1 <0>        0.1019 
     32 H12        13.8426  -14.8702   23.0196 H         1 <0>        0.1011 
     33 H13        11.3997  -14.3038   22.8209 H         1 <0>        0.1023 
     34 H14        12.3318  -13.0476   23.6300 H         1 <0>        0.0695 
     35 H15        11.3892  -13.0420   20.7233 H         1 <0>        0.0670 
     36 H16        10.8067  -12.0049   22.0240 H         1 <0>        0.0923 
     37 H17        12.4403  -10.8400   20.5269 H         1 <0>        0.1011 
     38 H18        12.9821  -10.8932   22.2020 H         1 <0>        0.0698 
     39 H19        14.8617  -11.4551   20.7375 H         1 <0>        0.1016 
     40 H20        13.9363  -12.7669   19.9535 H         1 <0>        0.1009 
     41 H21        19.9761  -14.7557   22.1035 H         1 <0>        0.0835 
     42 H22        19.4250  -14.8401   24.2394 H         1 <0>        0.0705 
     43 H23        17.7353  -14.4136   24.0284 H         1 <0>        0.0205 
     44 H24        18.6082  -17.0211   24.5062 H         1 <0>        0.0654 
     45 H25        17.0670  -16.5917   23.7543 H         1 <0>        0.0232 
     46 H26        19.6651  -17.3467   22.3668 H         1 <0>        0.0623 
     47 H27        18.0357  -17.9712   22.0475 H         1 <0>        0.0550 
     48 H28        17.3349  -15.8719   21.0748 H         1 <0>        0.0138 
     49 H29        18.9624  -16.0855   20.4303 H         1 <0>        0.0666 
     50 N1         14.5239  -13.1681   21.9525 N.4       1 <0>       -0.6901 
     51 H30        14.6412  -12.6366   22.8265 H         1 <0>        0.4429 
@<TRIPOS>BOND
    1     1     6 ar
    2     1     2 ar
    3     1    22 1
    4     2     3 ar
    5     2    23 1
    6     3     4 ar
    7     3    24 1
    8     4     5 ar
    9     4     7 1
   10     5     6 ar
   11     5    25 1
   12     6    26 1
   13     7     8 1
   14     7    15 1
   15     7    20 1
   16     8     9 1
   17     8    27 1
   18     8    28 1
   19     9    29 1
   20     9    30 1
   21     9    50 1
   22    10    11 1
   23    10    31 1
   24    10    32 1
   25    10    50 1
   26    11    12 1
   27    11    33 1
   28    11    34 1
   29    12    13 1
   30    12    35 1
   31    12    36 1
   32    13    14 1
   33    13    37 1
   34    13    38 1
   35    14    39 1
   36    14    40 1
   37    14    50 1
   38    15    19 1
   39    15    16 1
   40    15    41 1
   41    16    17 1
   42    16    42 1
   43    16    43 1
   44    17    18 1
   45    17    44 1
   46    17    45 1
   47    18    19 1
   48    18    46 1
   49    18    47 1
   50    19    48 1
   51    19    49 1
   52    20    21 1
   53    50    51 1
@<TRIPOS>SUBSTRUCTURE
