# Ligand [name]_[conformer]_[binding mode]: ZINC00000185_0001
# SLIDE Version: 3.3.5
# Time stamp: Tue Jul  7 15:44:35 2009
# Affiscore (kcal/mol), for ranking ligand candidates: -6.804
# Ligand Efficiency ((Affinity Score - Constant Term) / # non-H atoms): -0.063
# ===========================================================================
# Weighted term values
# hydrophobic complementarity term (kcal/mol)       : -2.275 
# polar term (kcal/mol)                             : -0.249 
# unsatisfied polar term (kcal/mol)                 : 0.938 
# constant term (kcal/mol)                          : -5.218 
# ===========================================================================
# protein-ligand hydrophobic contacts         : 28
# protein-ligand H-bond count                 : 3
# protein-ligand salt-bridge count            : 0
# metal-ligand interactions count             : 0
# unsatisfied interfacial polar atom count    : 7
# unsatisfied interfacial charged atom count  : 0
# buried carbons (x 100%)          : 0.667
# remaining vdW collisions         : 0
# total vdW overlap (A)            : 0.000
# anchor fragment translations     : 1
# side-chain mean-field iterations : 4
# ligand side-chain rotations      : 0
# protein side-chain rotations     : 5
# Orientscore (kcal/mol), used by SLIDE to select binding mode: -6.004
# ===========================================================================
# Anchor fragment atoms matched to template:
# ligand hydrophobic center  0 to template point  6 H
# ligand hydrophobic center  8 to template point  9 H
# ligand atom   21  O2   O.2   to template point 13 A
# ===========================================================================
#          |Ligand Atom -- Protein Atom|
#          |   #  type  -- RES   # type|
# hbond   1:  21  O.2   -- HIS   57  NE2 (dist: 2.622, D-H-A angle: 124.7)
# hbond   2:  21  O.2   -- SER  195  OG  (dist: 2.696, D-H-A angle: 151.2)
# hbond   3:  23  O.3   -- HIS   57  O   (dist: 2.891, D-H-A angle: 135.9)
# ===========================================================================
@<TRIPOS>MOLECULE
ZINC00000185
   55    58     0     0     0
SMALL
USER_CHARGES
@<TRIPOS>ATOM
      1 C1         17.1737  -14.5511   22.3076 C.3       1 <0>       -0.0797 
      2 C2         17.0496  -15.6379   21.2179 C.3       1 <0>       -0.0101 
      3 C3         18.3422  -16.5085   21.2452 C.3       1 <0>       -0.0708 
      4 C4         18.4132  -17.4473   22.4409 C.3       1 <0>       -0.1813 
      5 C5         17.1795  -18.3073   22.5180 C.2       1 <0>        0.5676 
      6 O1         17.2060  -19.4369   23.0027 O.2       1 <0>       -0.5388 
      7 C6         15.8918  -17.7329   22.0653 C.2       1 <0>       -0.2665 
      8 C7         15.8196  -16.5102   21.5122 C.2       1 <0>       -0.0240 
      9 C8         14.4592  -15.9456   21.1429 C.3       1 <0>       -0.0568 
     10 C9         14.4035  -15.3130   19.7443 C.3       1 <0>       -0.0711 
     11 C10        15.5394  -14.2934   19.5980 C.3       1 <0>       -0.0424 
     12 C11        16.8859  -15.0634   19.7612 C.3       1 <0>       -0.0441 
     13 C12        18.0512  -14.1616   19.2975 C.3       1 <0>        0.1530 
     14 C13        17.9461  -13.8913   17.7652 C.3       1 <0>       -0.1047 
     15 C14        16.4866  -13.8373   17.2149 C.3       1 <0>       -0.0277 
     16 C15        15.5447  -13.3911   18.3449 C.3       1 <0>       -0.0658 
     17 C16        14.2371  -13.0935   17.6136 C.3       1 <0>       -0.0685 
     18 C17        14.6978  -12.4800   16.2706 C.3       1 <0>       -0.0704 
     19 C18        16.2173  -12.7954   16.1101 C.3       1 <0>       -0.1618 
     20 C19        17.0379  -11.5156   16.2865 C.2       1 <0>        0.5332 
     21 O2         16.8291  -10.7087   17.1921 O.2       1 <0>       -0.5245 
     22 C20        18.1307  -11.2827   15.2560 C.3       1 <0>        0.0282 
     23 O3         18.9382  -10.1783   15.6080 O.3       1 <0>       -0.5867 
     24 C21        16.1316  -15.2335   16.6201 C.3       1 <0>       -0.0895 
     25 O4         18.0053  -12.9232   19.9917 O.3       1 <0>       -0.5959 
     26 H1         19.8519  -10.4618   15.6876 H         1 <0>        0.4183 
     27 H2         18.7450  -12.3768   19.6765 H         1 <0>        0.4035 
     28 H3         18.1197  -14.0056   22.2321 H         1 <0>        0.0597 
     29 H4         16.3610  -13.8207   22.2740 H         1 <0>        0.0445 
     30 H5         17.1466  -14.9918   23.3115 H         1 <0>        0.0337 
     31 H6         18.3942  -17.1182   20.3322 H         1 <0>        0.0451 
     32 H7         19.2390  -15.8781   21.2505 H         1 <0>        0.0512 
     33 H8         19.2853  -18.1015   22.3300 H         1 <0>        0.0724 
     34 H9         18.5178  -16.8990   23.3822 H         1 <0>        0.0733 
     35 H10        15.0074  -18.3349   22.2455 H         1 <0>        0.1465 
     36 H11        13.6813  -16.7169   21.2035 H         1 <0>        0.0531 
     37 H12        14.1940  -15.1843   21.8882 H         1 <0>        0.0597 
     38 H13        14.4692  -16.0907   18.9751 H         1 <0>        0.0458 
     39 H14        13.4302  -14.8234   19.6268 H         1 <0>        0.0481 
     40 H15        15.3642  -13.5874   20.4293 H         1 <0>        0.0661 
     41 H16        16.8409  -15.9430   19.0990 H         1 <0>        0.0530 
     42 H17        19.0247  -14.6421   19.4619 H         1 <0>        0.0317 
     43 H18        18.4976  -12.9717   17.5539 H         1 <0>        0.0467 
     44 H19        18.4921  -14.6858   17.2395 H         1 <0>        0.0499 
     45 H20        15.8429  -12.4060   18.7529 H         1 <0>        0.0797 
     46 H21        13.6516  -13.9990   17.4247 H         1 <0>        0.0425 
     47 H22        13.6019  -12.3992   18.1732 H         1 <0>        0.0529 
     48 H23        14.1263  -12.9323   15.4516 H         1 <0>        0.0453 
     49 H24        14.4930  -11.4039   16.2481 H         1 <0>        0.0569 
     50 H25        16.3789  -13.1727   15.0873 H         1 <0>        0.0639 
     51 H26        18.7687  -12.1685   15.1981 H         1 <0>        0.0861 
     52 H27        17.6740  -11.0955   14.2803 H         1 <0>        0.0517 
     53 H28        16.8015  -15.4592   15.7807 H         1 <0>        0.0321 
     54 H29        16.2141  -16.0686   17.3104 H         1 <0>        0.0444 
     55 H30        15.1141  -15.2621   16.2166 H         1 <0>        0.0413 
@<TRIPOS>BOND
    1     1     2 1
    2     1    28 1
    3     1    29 1
    4     1    30 1
    5     2     8 1
    6     2    12 1
    7     2     3 1
    8     3     4 1
    9     3    31 1
   10     3    32 1
   11     4     5 1
   12     4    33 1
   13     4    34 1
   14     5     6 2
   15     5     7 1
   16     7     8 2
   17     7    35 1
   18     8     9 1
   19     9    10 1
   20     9    36 1
   21     9    37 1
   22    10    11 1
   23    10    38 1
   24    10    39 1
   25    11    16 1
   26    11    12 1
   27    11    40 1
   28    12    13 1
   29    12    41 1
   30    13    14 1
   31    13    25 1
   32    13    42 1
   33    14    15 1
   34    14    43 1
   35    14    44 1
   36    15    19 1
   37    15    16 1
   38    15    24 1
   39    16    17 1
   40    16    45 1
   41    17    18 1
   42    17    46 1
   43    17    47 1
   44    18    19 1
   45    18    48 1
   46    18    49 1
   47    19    20 1
   48    19    50 1
   49    20    21 2
   50    20    22 1
   51    22    23 1
   52    22    51 1
   53    22    52 1
   54    23    26 1
   55    24    53 1
   56    24    54 1
   57    24    55 1
   58    25    27 1
@<TRIPOS>SUBSTRUCTURE
